data_image0
_cell_length_a       20.7004
_cell_length_b       20.7004
_cell_length_c       20.7004
_cell_angle_alpha    90
_cell_angle_beta     90
_cell_angle_gamma    90

_symmetry_space_group_name_H-M    "P 1"
_symmetry_int_tables_number       1

loop_
  _symmetry_equiv_pos_as_xyz
  'x, y, z'

loop_
  _atom_site_label
  _atom_site_occupancy
  _atom_site_fract_x
  _atom_site_fract_y
  _atom_site_fract_z
  _atom_site_thermal_displace_type
  _atom_site_B_iso_or_equiv
  _atom_site_type_symbol
  B1       1.0000 0.11989  0.00000  0.00000  Biso   1.000  B 
  B2       1.0000 0.11989  0.50000  0.50000  Biso   1.000  B 
  B3       1.0000 0.61989  0.00000  0.50000  Biso   1.000  B 
  B4       1.0000 0.61989  0.50000  0.00000  Biso   1.000  B 
  B5       1.0000 0.88011  0.00000  0.00000  Biso   1.000  B 
  B6       1.0000 0.88011  0.50000  0.50000  Biso   1.000  B 
  B7       1.0000 0.38011  0.00000  0.50000  Biso   1.000  B 
  B8       1.0000 0.38011  0.50000  0.00000  Biso   1.000  B 
  B9       1.0000 0.00000  0.11989  0.00000  Biso   1.000  B 
  B10      1.0000 0.00000  0.61989  0.50000  Biso   1.000  B 
  B11      1.0000 0.50000  0.11989  0.50000  Biso   1.000  B 
  B12      1.0000 0.50000  0.61989  0.00000  Biso   1.000  B 
  B13      1.0000 0.00000  0.88011  0.00000  Biso   1.000  B 
  B14      1.0000 0.00000  0.38011  0.50000  Biso   1.000  B 
  B15      1.0000 0.50000  0.88011  0.50000  Biso   1.000  B 
  B16      1.0000 0.50000  0.38011  0.00000  Biso   1.000  B 
  B17      1.0000 0.00000  0.00000  0.11989  Biso   1.000  B 
  B18      1.0000 0.00000  0.50000  0.61989  Biso   1.000  B 
  B19      1.0000 0.50000  0.00000  0.61989  Biso   1.000  B 
  B20      1.0000 0.50000  0.50000  0.11989  Biso   1.000  B 
  B21      1.0000 0.00000  0.00000  0.88011  Biso   1.000  B 
  B22      1.0000 0.00000  0.50000  0.38011  Biso   1.000  B 
  B23      1.0000 0.50000  0.00000  0.38011  Biso   1.000  B 
  B24      1.0000 0.50000  0.50000  0.88011  Biso   1.000  B 
  B25      1.0000 0.05610  0.44390  0.44390  Biso   1.000  B 
  B26      1.0000 0.55610  0.94390  0.44390  Biso   1.000  B 
  B27      1.0000 0.55610  0.44390  0.94390  Biso   1.000  B 
  B28      1.0000 0.44390  0.05610  0.44390  Biso   1.000  B 
  B29      1.0000 0.44390  0.55610  0.94390  Biso   1.000  B 
  B30      1.0000 0.94390  0.94390  0.05610  Biso   1.000  B 
  B31      1.0000 0.94390  0.44390  0.55610  Biso   1.000  B 
  B32      1.0000 0.05610  0.05610  0.05610  Biso   1.000  B 
  B33      1.0000 0.55610  0.55610  0.05610  Biso   1.000  B 
  B34      1.0000 0.94390  0.05610  0.05610  Biso   1.000  B 
  B35      1.0000 0.94390  0.55610  0.55610  Biso   1.000  B 
  B36      1.0000 0.44390  0.05610  0.55610  Biso   1.000  B 
  B37      1.0000 0.44390  0.55610  0.05610  Biso   1.000  B 
  B38      1.0000 0.05610  0.94390  0.05610  Biso   1.000  B 
  B39      1.0000 0.05610  0.44390  0.55610  Biso   1.000  B 
  B40      1.0000 0.55610  0.94390  0.55610  Biso   1.000  B 
  B41      1.0000 0.55610  0.44390  0.05610  Biso   1.000  B 
  B42      1.0000 0.94390  0.94390  0.94390  Biso   1.000  B 
  B43      1.0000 0.94390  0.44390  0.44390  Biso   1.000  B 
  B44      1.0000 0.44390  0.94390  0.44390  Biso   1.000  B 
  B45      1.0000 0.44390  0.44390  0.94390  Biso   1.000  B 
  B46      1.0000 0.05610  0.05610  0.94390  Biso   1.000  B 
  B47      1.0000 0.05610  0.55610  0.44390  Biso   1.000  B 
  B48      1.0000 0.55610  0.05610  0.44390  Biso   1.000  B 
  B49      1.0000 0.15360  0.00000  0.84640  Biso   1.000  B 
  B50      1.0000 0.17046  0.00000  0.90471  Biso   1.000  B 
  B51      1.0000 0.09529  0.00000  0.82954  Biso   1.000  B 
  B52      1.0000 0.20500  0.00000  0.79500  Biso   1.000  B 
  B53      1.0000 0.18437  0.00000  0.73249  Biso   1.000  B 
  N1       1.0000 0.11395  0.99958  0.71278  Biso   1.000  N 
  B54      1.0000 0.22128  0.00000  0.63051  Biso   1.000  B 
  B55      1.0000 0.23249  0.00000  0.68442  Biso   1.000  B 
  B56      1.0000 0.29500  0.00000  0.70500  Biso   1.000  B 
  B57      1.0000 0.31558  0.00000  0.76751  Biso   1.000  B 
  B58      1.0000 0.26751  0.00000  0.81563  Biso   1.000  B 
  B59      1.0000 0.27872  0.00000  0.86954  Biso   1.000  B 
  N2       1.0000 0.38592  0.99932  0.78738  Biso   1.000  N 
  B60      1.0000 0.40470  0.00000  0.67046  Biso   1.000  B 
  B61      1.0000 0.34640  0.00000  0.65360  Biso   1.000  B 
  B62      1.0000 0.32954  0.00000  0.59529  Biso   1.000  B 
  N3       1.0000 0.10369  0.99520  0.65417  Biso   1.000  N 
  N4       1.0000 0.09452  0.99128  0.59696  Biso   1.000  N 
  N5       1.0000 0.39521  0.00096  0.84625  Biso   1.000  N 
  N6       1.0000 0.40265  0.00222  0.90380  Biso   1.000  N 
  B63      1.0000 0.15360  0.50000  0.34640  Biso   1.000  B 
  B64      1.0000 0.17046  0.50000  0.40471  Biso   1.000  B 
  B65      1.0000 0.09529  0.50000  0.32954  Biso   1.000  B 
  B66      1.0000 0.20500  0.50000  0.29500  Biso   1.000  B 
  B67      1.0000 0.18437  0.50000  0.23249  Biso   1.000  B 
  N7       1.0000 0.11420  0.49329  0.21344  Biso   1.000  N 
  B68      1.0000 0.22128  0.50000  0.13051  Biso   1.000  B 
  B69      1.0000 0.23249  0.50000  0.18442  Biso   1.000  B 
  B70      1.0000 0.29500  0.50000  0.20500  Biso   1.000  B 
  B71      1.0000 0.31558  0.50000  0.26751  Biso   1.000  B 
  B72      1.0000 0.26751  0.50000  0.31563  Biso   1.000  B 
  B73      1.0000 0.27872  0.50000  0.36954  Biso   1.000  B 
  N8       1.0000 0.38588  0.50068  0.28779  Biso   1.000  N 
  B74      1.0000 0.40470  0.50000  0.17046  Biso   1.000  B 
  B75      1.0000 0.34640  0.50000  0.15360  Biso   1.000  B 
  B76      1.0000 0.32954  0.50000  0.09529  Biso   1.000  B 
  N9       1.0000 0.10372  0.49677  0.15497  Biso   1.000  N 
  N10      1.0000 0.09482  0.50088  0.09780  Biso   1.000  N 
  N11      1.0000 0.39452  0.50139  0.34687  Biso   1.000  N 
  N12      1.0000 0.40097  0.50156  0.40461  Biso   1.000  N 
  B77      1.0000 0.65360  0.00000  0.34640  Biso   1.000  B 
  B78      1.0000 0.67046  0.00000  0.40471  Biso   1.000  B 
  B79      1.0000 0.59529  0.00000  0.32954  Biso   1.000  B 
  B80      1.0000 0.70500  0.00000  0.29500  Biso   1.000  B 
  B81      1.0000 0.68437  0.00000  0.23249  Biso   1.000  B 
  N13      1.0000 0.61408  0.99585  0.21324  Biso   1.000  N 
  B82      1.0000 0.72128  0.00000  0.13051  Biso   1.000  B 
  B83      1.0000 0.73248  0.00000  0.18442  Biso   1.000  B 
  B84      1.0000 0.79499  0.00000  0.20500  Biso   1.000  B 
  B85      1.0000 0.81558  0.00000  0.26751  Biso   1.000  B 
  B86      1.0000 0.76751  0.00000  0.31563  Biso   1.000  B 
  B87      1.0000 0.77872  0.00000  0.36954  Biso   1.000  B 
  N14      1.0000 0.88582  0.00219  0.28818  Biso   1.000  N 
  B88      1.0000 0.90470  0.00000  0.17046  Biso   1.000  B 
  B89      1.0000 0.84639  0.00000  0.15360  Biso   1.000  B 
  B90      1.0000 0.82953  0.00000  0.09529  Biso   1.000  B 
  N15      1.0000 0.60421  0.99850  0.15461  Biso   1.000  N 
  N16      1.0000 0.59614  0.00173  0.09726  Biso   1.000  N 
  N17      1.0000 0.89382  0.00250  0.34745  Biso   1.000  N 
  N18      1.0000 0.89931  0.00201  0.40534  Biso   1.000  N 
  B91      1.0000 0.65360  0.50000  0.84640  Biso   1.000  B 
  B92      1.0000 0.67046  0.50000  0.90471  Biso   1.000  B 
  B93      1.0000 0.59529  0.50000  0.82954  Biso   1.000  B 
  B94      1.0000 0.70500  0.50000  0.79500  Biso   1.000  B 
  B95      1.0000 0.68437  0.50000  0.73249  Biso   1.000  B 
  N19      1.0000 0.61405  0.49535  0.71365  Biso   1.000  N 
  B96      1.0000 0.72128  0.50000  0.63051  Biso   1.000  B 
  B97      1.0000 0.73248  0.50000  0.68442  Biso   1.000  B 
  B98      1.0000 0.79499  0.50000  0.70500  Biso   1.000  B 
  B99      1.0000 0.81558  0.50000  0.76751  Biso   1.000  B 
  B100     1.0000 0.76751  0.50000  0.81563  Biso   1.000  B 
  B101     1.0000 0.77872  0.50000  0.86954  Biso   1.000  B 
  N20      1.0000 0.88573  0.49945  0.78886  Biso   1.000  N 
  B102     1.0000 0.90470  0.50000  0.67046  Biso   1.000  B 
  B103     1.0000 0.84639  0.50000  0.65360  Biso   1.000  B 
  B104     1.0000 0.82953  0.50000  0.59529  Biso   1.000  B 
  N21      1.0000 0.60357  0.49899  0.65529  Biso   1.000  N 
  N22      1.0000 0.59475  0.50312  0.59815  Biso   1.000  N 
  N23      1.0000 0.89370  0.50415  0.84810  Biso   1.000  N 
  N24      1.0000 0.89957  0.50837  0.90586  Biso   1.000  N 
  B105     1.0000 0.84640  0.00000  0.84640  Biso   1.000  B 
  B106     1.0000 0.82954  0.00000  0.90471  Biso   1.000  B 
  B107     1.0000 0.90471  0.00000  0.82954  Biso   1.000  B 
  B108     1.0000 0.79500  0.00000  0.79500  Biso   1.000  B 
  B109     1.0000 0.81563  0.00000  0.73249  Biso   1.000  B 
  N25      1.0000 0.88537  0.99228  0.71402  Biso   1.000  N 
  B110     1.0000 0.77872  0.00000  0.63051  Biso   1.000  B 
  B111     1.0000 0.76752  0.00000  0.68442  Biso   1.000  B 
  B112     1.0000 0.70501  0.00000  0.70500  Biso   1.000  B 
  B113     1.0000 0.68442  0.00000  0.76751  Biso   1.000  B 
  B114     1.0000 0.73249  0.00000  0.81563  Biso   1.000  B 
  B115     1.0000 0.72128  0.00000  0.86954  Biso   1.000  B 
  N26      1.0000 0.61460  0.00736  0.78585  Biso   1.000  N 
  B116     1.0000 0.59530  0.00000  0.67046  Biso   1.000  B 
  B117     1.0000 0.65361  0.00000  0.65360  Biso   1.000  B 
  B118     1.0000 0.67047  0.00000  0.59529  Biso   1.000  B 
  N27      1.0000 0.89526  0.94279  0.68362  Biso   1.000  N 
  N28      1.0000 0.90287  0.89410  0.65397  Biso   1.000  N 
  N29      1.0000 0.60449  0.05644  0.81681  Biso   1.000  N 
  N30      1.0000 0.59663  0.10467  0.84711  Biso   1.000  N 
  B119     1.0000 0.84640  0.50000  0.34640  Biso   1.000  B 
  B120     1.0000 0.82954  0.50000  0.40471  Biso   1.000  B 
  B121     1.0000 0.90471  0.50000  0.32954  Biso   1.000  B 
  B122     1.0000 0.79500  0.50000  0.29500  Biso   1.000  B 
  B123     1.0000 0.81563  0.50000  0.23249  Biso   1.000  B 
  N31      1.0000 0.88527  0.49244  0.21391  Biso   1.000  N 
  B124     1.0000 0.77872  0.50000  0.13051  Biso   1.000  B 
  B125     1.0000 0.76752  0.50000  0.18442  Biso   1.000  B 
  B126     1.0000 0.70501  0.50000  0.20500  Biso   1.000  B 
  B127     1.0000 0.68442  0.50000  0.26751  Biso   1.000  B 
  B128     1.0000 0.73249  0.50000  0.31563  Biso   1.000  B 
  B129     1.0000 0.72128  0.50000  0.36954  Biso   1.000  B 
  N32      1.0000 0.61451  0.50610  0.28585  Biso   1.000  N 
  B130     1.0000 0.59530  0.50000  0.17046  Biso   1.000  B 
  B131     1.0000 0.65361  0.50000  0.15360  Biso   1.000  B 
  B132     1.0000 0.67047  0.50000  0.09529  Biso   1.000  B 
  N33      1.0000 0.89481  0.44209  0.18487  Biso   1.000  N 
  N34      1.0000 0.90174  0.39248  0.15661  Biso   1.000  N 
  N35      1.0000 0.60370  0.55480  0.31710  Biso   1.000  N 
  N36      1.0000 0.59521  0.60270  0.34772  Biso   1.000  N 
  B133     1.0000 0.34640  0.00000  0.34640  Biso   1.000  B 
  B134     1.0000 0.32954  0.00000  0.40471  Biso   1.000  B 
  B135     1.0000 0.40471  0.00000  0.32954  Biso   1.000  B 
  B136     1.0000 0.29500  0.00000  0.29500  Biso   1.000  B 
  B137     1.0000 0.31563  0.00000  0.23249  Biso   1.000  B 
  N37      1.0000 0.38550  0.99463  0.21393  Biso   1.000  N 
  B138     1.0000 0.27872  0.00000  0.13051  Biso   1.000  B 
  B139     1.0000 0.26751  0.00000  0.18442  Biso   1.000  B 
  B140     1.0000 0.20500  0.00000  0.20500  Biso   1.000  B 
  B141     1.0000 0.18442  0.00000  0.26751  Biso   1.000  B 
  B142     1.0000 0.23249  0.00000  0.31563  Biso   1.000  B 
  B143     1.0000 0.22128  0.00000  0.36954  Biso   1.000  B 
  N38      1.0000 0.11467  0.00598  0.28605  Biso   1.000  N 
  B144     1.0000 0.09530  0.00000  0.17046  Biso   1.000  B 
  B145     1.0000 0.15360  0.00000  0.15360  Biso   1.000  B 
  B146     1.0000 0.17046  0.00000  0.09529  Biso   1.000  B 
  N39      1.0000 0.39659  0.94574  0.18308  Biso   1.000  N 
  N40      1.0000 0.40527  0.89754  0.15296  Biso   1.000  N 
  N41      1.0000 0.10438  0.05587  0.31551  Biso   1.000  N 
  N42      1.0000 0.09689  0.10505  0.34432  Biso   1.000  N 
  B147     1.0000 0.34640  0.50000  0.84640  Biso   1.000  B 
  B148     1.0000 0.32954  0.50000  0.90471  Biso   1.000  B 
  B149     1.0000 0.40471  0.50000  0.82954  Biso   1.000  B 
  B150     1.0000 0.29500  0.50000  0.79500  Biso   1.000  B 
  B151     1.0000 0.31563  0.50000  0.73249  Biso   1.000  B 
  N43      1.0000 0.38542  0.49322  0.71396  Biso   1.000  N 
  B152     1.0000 0.27872  0.50000  0.63051  Biso   1.000  B 
  B153     1.0000 0.26751  0.50000  0.68442  Biso   1.000  B 
  B154     1.0000 0.20500  0.50000  0.70500  Biso   1.000  B 
  B155     1.0000 0.18442  0.50000  0.76751  Biso   1.000  B 
  B156     1.0000 0.23249  0.50000  0.81563  Biso   1.000  B 
  B157     1.0000 0.22128  0.50000  0.86954  Biso   1.000  B 
  N44      1.0000 0.11460  0.50613  0.78602  Biso   1.000  N 
  B158     1.0000 0.09530  0.50000  0.67046  Biso   1.000  B 
  B159     1.0000 0.15360  0.50000  0.65360  Biso   1.000  B 
  B160     1.0000 0.17046  0.50000  0.59529  Biso   1.000  B 
  N45      1.0000 0.39576  0.44393  0.68342  Biso   1.000  N 
  N46      1.0000 0.40377  0.39539  0.65364  Biso   1.000  N 
  N47      1.0000 0.10409  0.55553  0.81628  Biso   1.000  N 
  N48      1.0000 0.09614  0.60423  0.84578  Biso   1.000  N 
  B161     1.0000 0.84640  0.15360  0.00000  Biso   1.000  B 
  B162     1.0000 0.90471  0.17046  0.00000  Biso   1.000  B 
  B163     1.0000 0.82954  0.09529  0.00000  Biso   1.000  B 
  B164     1.0000 0.79500  0.20500  0.00000  Biso   1.000  B 
  B165     1.0000 0.73249  0.18437  0.00000  Biso   1.000  B 
  N49      1.0000 0.71266  0.11405  0.99681  Biso   1.000  N 
  B166     1.0000 0.63051  0.22128  0.00000  Biso   1.000  B 
  B167     1.0000 0.68442  0.23249  0.00000  Biso   1.000  B 
  B168     1.0000 0.70500  0.29500  0.00000  Biso   1.000  B 
  B169     1.0000 0.76751  0.31558  0.00000  Biso   1.000  B 
  B170     1.0000 0.81563  0.26751  0.00000  Biso   1.000  B 
  B171     1.0000 0.86954  0.27872  0.00000  Biso   1.000  B 
  N50      1.0000 0.78703  0.38598  0.00290  Biso   1.000  N 
  B172     1.0000 0.67046  0.40470  0.00000  Biso   1.000  B 
  B173     1.0000 0.65360  0.34640  0.00000  Biso   1.000  B 
  B174     1.0000 0.59529  0.32954  0.00000  Biso   1.000  B 
  N51      1.0000 0.65377  0.10456  0.99776  Biso   1.000  N 
  N52      1.0000 0.59623  0.09680  0.99923  Biso   1.000  N 
  N53      1.0000 0.84573  0.39615  0.00138  Biso   1.000  N 
  N54      1.0000 0.90306  0.40488  0.99936  Biso   1.000  N 
  B175     1.0000 0.84640  0.65360  0.50000  Biso   1.000  B 
  B176     1.0000 0.90471  0.67046  0.50000  Biso   1.000  B 
  B177     1.0000 0.82954  0.59529  0.50000  Biso   1.000  B 
  B178     1.0000 0.79500  0.70500  0.50000  Biso   1.000  B 
  B179     1.0000 0.73249  0.68437  0.50000  Biso   1.000  B 
  N55      1.0000 0.71258  0.61410  0.49615  Biso   1.000  N 
  B180     1.0000 0.63051  0.72128  0.50000  Biso   1.000  B 
  B181     1.0000 0.68442  0.73248  0.50000  Biso   1.000  B 
  B182     1.0000 0.70500  0.79499  0.50000  Biso   1.000  B 
  B183     1.0000 0.76751  0.81558  0.50000  Biso   1.000  B 
  B184     1.0000 0.81563  0.76751  0.50000  Biso   1.000  B 
  B185     1.0000 0.86954  0.77872  0.50000  Biso   1.000  B 
  N56      1.0000 0.78842  0.88581  0.49948  Biso   1.000  N 
  B186     1.0000 0.67046  0.90470  0.50000  Biso   1.000  B 
  B187     1.0000 0.65360  0.84639  0.50000  Biso   1.000  B 
  B188     1.0000 0.59529  0.82953  0.50000  Biso   1.000  B 
  N57      1.0000 0.65364  0.60490  0.49776  Biso   1.000  N 
  N58      1.0000 0.59605  0.59769  0.50002  Biso   1.000  N 
  N59      1.0000 0.84759  0.89433  0.50290  Biso   1.000  N 
  N60      1.0000 0.90530  0.90095  0.50592  Biso   1.000  N 
  B189     1.0000 0.34640  0.15360  0.50000  Biso   1.000  B 
  B190     1.0000 0.40471  0.17046  0.50000  Biso   1.000  B 
  B191     1.0000 0.32954  0.09529  0.50000  Biso   1.000  B 
  B192     1.0000 0.29500  0.20500  0.50000  Biso   1.000  B 
  B193     1.0000 0.23249  0.18437  0.50000  Biso   1.000  B 
  N61      1.0000 0.21488  0.11436  0.49149  Biso   1.000  N 
  B194     1.0000 0.13051  0.22128  0.50000  Biso   1.000  B 
  B195     1.0000 0.18442  0.23249  0.50000  Biso   1.000  B 
  B196     1.0000 0.20500  0.29500  0.50000  Biso   1.000  B 
  B197     1.0000 0.26751  0.31558  0.50000  Biso   1.000  B 
  B198     1.0000 0.31563  0.26751  0.50000  Biso   1.000  B 
  B199     1.0000 0.36954  0.27872  0.50000  Biso   1.000  B 
  N62      1.0000 0.28765  0.38592  0.50073  Biso   1.000  N 
  B200     1.0000 0.17046  0.40470  0.50000  Biso   1.000  B 
  B201     1.0000 0.15360  0.34640  0.50000  Biso   1.000  B 
  B202     1.0000 0.09529  0.32954  0.50000  Biso   1.000  B 
  N63      1.0000 0.15755  0.10241  0.49945  Biso   1.000  N 
  N64      1.0000 0.10131  0.09212  0.50797  Biso   1.000  N 
  N65      1.0000 0.34670  0.39464  0.50092  Biso   1.000  N 
  N66      1.0000 0.40442  0.40109  0.50057  Biso   1.000  N 
  B203     1.0000 0.34640  0.65360  0.00000  Biso   1.000  B 
  B204     1.0000 0.40471  0.67046  0.00000  Biso   1.000  B 
  B205     1.0000 0.32954  0.59529  0.00000  Biso   1.000  B 
  B206     1.0000 0.29500  0.70500  0.00000  Biso   1.000  B 
  B207     1.0000 0.23249  0.68437  0.00000  Biso   1.000  B 
  N67      1.0000 0.21301  0.61410  0.99514  Biso   1.000  N 
  B208     1.0000 0.13051  0.72128  0.00000  Biso   1.000  B 
  B209     1.0000 0.18442  0.73248  0.00000  Biso   1.000  B 
  B210     1.0000 0.20500  0.79499  0.00000  Biso   1.000  B 
  B211     1.0000 0.26751  0.81558  0.00000  Biso   1.000  B 
  B212     1.0000 0.31563  0.76751  0.00000  Biso   1.000  B 
  B213     1.0000 0.36954  0.77872  0.00000  Biso   1.000  B 
  N68      1.0000 0.28728  0.88593  0.00259  Biso   1.000  N 
  B214     1.0000 0.17046  0.90470  0.00000  Biso   1.000  B 
  B215     1.0000 0.15360  0.84639  0.00000  Biso   1.000  B 
  B216     1.0000 0.09529  0.82953  0.00000  Biso   1.000  B 
  N69      1.0000 0.15429  0.60396  0.99642  Biso   1.000  N 
  N70      1.0000 0.09693  0.59520  0.99822  Biso   1.000  N 
  N71      1.0000 0.34616  0.89477  0.99989  Biso   1.000  N 
  N72      1.0000 0.40376  0.90107  0.99645  Biso   1.000  N 
  B217     1.0000 0.84640  0.84640  0.00000  Biso   1.000  B 
  B218     1.0000 0.90471  0.82954  0.00000  Biso   1.000  B 
  B219     1.0000 0.82954  0.90471  0.00000  Biso   1.000  B 
  B220     1.0000 0.79500  0.79500  0.00000  Biso   1.000  B 
  B221     1.0000 0.73249  0.81563  0.00000  Biso   1.000  B 
  N73      1.0000 0.71411  0.88551  0.99366  Biso   1.000  N 
  B222     1.0000 0.63051  0.77872  0.00000  Biso   1.000  B 
  B223     1.0000 0.68442  0.76752  0.00000  Biso   1.000  B 
  B224     1.0000 0.70500  0.70501  0.00000  Biso   1.000  B 
  B225     1.0000 0.76751  0.68442  0.00000  Biso   1.000  B 
  B226     1.0000 0.81563  0.73249  0.00000  Biso   1.000  B 
  B227     1.0000 0.86954  0.72128  0.00000  Biso   1.000  B 
  N74      1.0000 0.78609  0.61467  0.00692  Biso   1.000  N 
  B228     1.0000 0.67046  0.59530  0.00000  Biso   1.000  B 
  B229     1.0000 0.65360  0.65361  0.00000  Biso   1.000  B 
  B230     1.0000 0.59529  0.67047  0.00000  Biso   1.000  B 
  N75      1.0000 0.68269  0.89633  0.94505  Biso   1.000  N 
  N76      1.0000 0.65195  0.90495  0.89723  Biso   1.000  N 
  N77      1.0000 0.81555  0.60461  0.05692  Biso   1.000  N 
  N78      1.0000 0.84421  0.59718  0.10623  Biso   1.000  N 
  B231     1.0000 0.84640  0.34640  0.50000  Biso   1.000  B 
  B232     1.0000 0.90471  0.32954  0.50000  Biso   1.000  B 
  B233     1.0000 0.82954  0.40471  0.50000  Biso   1.000  B 
  B234     1.0000 0.79500  0.29500  0.50000  Biso   1.000  B 
  B235     1.0000 0.73249  0.31563  0.50000  Biso   1.000  B 
  N79      1.0000 0.71400  0.38545  0.49364  Biso   1.000  N 
  B236     1.0000 0.63051  0.27872  0.50000  Biso   1.000  B 
  B237     1.0000 0.68442  0.26751  0.50000  Biso   1.000  B 
  B238     1.0000 0.70500  0.20500  0.50000  Biso   1.000  B 
  B239     1.0000 0.76751  0.18442  0.50000  Biso   1.000  B 
  B240     1.0000 0.81563  0.23249  0.50000  Biso   1.000  B 
  B241     1.0000 0.86954  0.22128  0.50000  Biso   1.000  B 
  N80      1.0000 0.78592  0.11443  0.50484  Biso   1.000  N 
  B242     1.0000 0.67046  0.09530  0.50000  Biso   1.000  B 
  B243     1.0000 0.65360  0.15360  0.50000  Biso   1.000  B 
  B244     1.0000 0.59529  0.17046  0.50000  Biso   1.000  B 
  N81      1.0000 0.68330  0.39599  0.44451  Biso   1.000  N 
  N82      1.0000 0.65332  0.40420  0.39614  Biso   1.000  N 
  N83      1.0000 0.81758  0.10280  0.55308  Biso   1.000  N 
  N84      1.0000 0.84855  0.09353  0.60060  Biso   1.000  N 
  B245     1.0000 0.34640  0.84640  0.50000  Biso   1.000  B 
  B246     1.0000 0.40471  0.82954  0.50000  Biso   1.000  B 
  B247     1.0000 0.32954  0.90471  0.50000  Biso   1.000  B 
  B248     1.0000 0.29500  0.79500  0.50000  Biso   1.000  B 
  B249     1.0000 0.23249  0.81563  0.50000  Biso   1.000  B 
  N85      1.0000 0.21391  0.88536  0.49306  Biso   1.000  N 
  B250     1.0000 0.13051  0.77872  0.50000  Biso   1.000  B 
  B251     1.0000 0.18442  0.76752  0.50000  Biso   1.000  B 
  B252     1.0000 0.20500  0.70501  0.50000  Biso   1.000  B 
  B253     1.0000 0.26751  0.68442  0.50000  Biso   1.000  B 
  B254     1.0000 0.31563  0.73249  0.50000  Biso   1.000  B 
  B255     1.0000 0.36954  0.72128  0.50000  Biso   1.000  B 
  N86      1.0000 0.28584  0.61470  0.50807  Biso   1.000  N 
  B256     1.0000 0.17046  0.59530  0.50000  Biso   1.000  B 
  B257     1.0000 0.15360  0.65361  0.50000  Biso   1.000  B 
  B258     1.0000 0.09529  0.67047  0.50000  Biso   1.000  B 
  N87      1.0000 0.18420  0.89542  0.44322  Biso   1.000  N 
  N88      1.0000 0.15528  0.90294  0.39409  Biso   1.000  N 
  N89      1.0000 0.31625  0.60515  0.55760  Biso   1.000  N 
  N90      1.0000 0.34601  0.59788  0.60628  Biso   1.000  N 
  B259     1.0000 0.34640  0.34640  0.00000  Biso   1.000  B 
  B260     1.0000 0.40471  0.32954  0.00000  Biso   1.000  B 
  B261     1.0000 0.32954  0.40471  0.00000  Biso   1.000  B 
  B262     1.0000 0.29500  0.29500  0.00000  Biso   1.000  B 
  B263     1.0000 0.23249  0.31563  0.00000  Biso   1.000  B 
  N91      1.0000 0.21395  0.38558  0.99630  Biso   1.000  N 
  B264     1.0000 0.13051  0.27872  0.00000  Biso   1.000  B 
  B265     1.0000 0.18442  0.26751  0.00000  Biso   1.000  B 
  B266     1.0000 0.20500  0.20500  0.00000  Biso   1.000  B 
  B267     1.0000 0.26751  0.18442  0.00000  Biso   1.000  B 
  B268     1.0000 0.31563  0.23249  0.00000  Biso   1.000  B 
  B269     1.0000 0.36954  0.22128  0.00000  Biso   1.000  B 
  N92      1.0000 0.28585  0.11468  0.00764  Biso   1.000  N 
  B270     1.0000 0.17046  0.09530  0.00000  Biso   1.000  B 
  B271     1.0000 0.15360  0.15360  0.00000  Biso   1.000  B 
  B272     1.0000 0.09529  0.17046  0.00000  Biso   1.000  B 
  N93      1.0000 0.18280  0.39768  0.94788  Biso   1.000  N 
  N94      1.0000 0.15241  0.40722  0.90004  Biso   1.000  N 
  N95      1.0000 0.31603  0.10498  0.05726  Biso   1.000  N 
  N96      1.0000 0.34560  0.09767  0.10603  Biso   1.000  N 
  B273     1.0000 0.00000  0.84640  0.15360  Biso   1.000  B 
  B274     1.0000 0.00000  0.90471  0.17046  Biso   1.000  B 
  B275     1.0000 0.00000  0.82954  0.09529  Biso   1.000  B 
  B276     1.0000 0.00000  0.79500  0.20500  Biso   1.000  B 
  B277     1.0000 0.00000  0.73249  0.18437  Biso   1.000  B 
  N97      1.0000 0.99444  0.71356  0.11404  Biso   1.000  N 
  B278     1.0000 0.00000  0.63051  0.22128  Biso   1.000  B 
  B279     1.0000 0.00000  0.68442  0.23249  Biso   1.000  B 
  B280     1.0000 0.00000  0.70500  0.29500  Biso   1.000  B 
  B281     1.0000 0.00000  0.76751  0.31558  Biso   1.000  B 
  B282     1.0000 0.00000  0.81563  0.26751  Biso   1.000  B 
  B283     1.0000 0.00000  0.86954  0.27872  Biso   1.000  B 
  N98      1.0000 0.00278  0.78713  0.38598  Biso   1.000  N 
  B284     1.0000 0.00000  0.67046  0.40470  Biso   1.000  B 
  B285     1.0000 0.00000  0.65360  0.34640  Biso   1.000  B 
  B286     1.0000 0.00000  0.59529  0.32954  Biso   1.000  B 
  N99      1.0000 0.99730  0.65516  0.10314  Biso   1.000  N 
  N100     1.0000 0.00058  0.59805  0.09357  Biso   1.000  N 
  N101     1.0000 0.00057  0.84589  0.39568  Biso   1.000  N 
  N102     1.0000 0.99781  0.90333  0.40351  Biso   1.000  N 
  B287     1.0000 0.00000  0.34640  0.65360  Biso   1.000  B 
  B288     1.0000 0.00000  0.40471  0.67046  Biso   1.000  B 
  B289     1.0000 0.00000  0.32954  0.59529  Biso   1.000  B 
  B290     1.0000 0.00000  0.29500  0.70500  Biso   1.000  B 
  B291     1.0000 0.00000  0.23249  0.68437  Biso   1.000  B 
  N103     1.0000 0.99664  0.21180  0.61415  Biso   1.000  N 
  B292     1.0000 0.00000  0.13051  0.72128  Biso   1.000  B 
  B293     1.0000 0.00000  0.18442  0.73248  Biso   1.000  B 
  B294     1.0000 0.00000  0.20500  0.79499  Biso   1.000  B 
  B295     1.0000 0.00000  0.26751  0.81558  Biso   1.000  B 
  B296     1.0000 0.00000  0.31563  0.76751  Biso   1.000  B 
  B297     1.0000 0.00000  0.36954  0.77872  Biso   1.000  B 
  N104     1.0000 0.00415  0.28795  0.88584  Biso   1.000  N 
  B298     1.0000 0.00000  0.17046  0.90470  Biso   1.000  B 
  B299     1.0000 0.00000  0.15360  0.84639  Biso   1.000  B 
  B300     1.0000 0.00000  0.09529  0.82953  Biso   1.000  B 
  N105     1.0000 0.99736  0.15253  0.60583  Biso   1.000  N 
  N106     1.0000 0.99883  0.09469  0.59976  Biso   1.000  N 
  N107     1.0000 0.00213  0.34709  0.89443  Biso   1.000  N 
  N108     1.0000 0.99931  0.40485  0.90066  Biso   1.000  N 
  B301     1.0000 0.50000  0.84640  0.65360  Biso   1.000  B 
  B302     1.0000 0.50000  0.90471  0.67046  Biso   1.000  B 
  B303     1.0000 0.50000  0.82954  0.59529  Biso   1.000  B 
  B304     1.0000 0.50000  0.79500  0.70500  Biso   1.000  B 
  B305     1.0000 0.50000  0.73249  0.68437  Biso   1.000  B 
  N109     1.0000 0.49817  0.71276  0.61402  Biso   1.000  N 
  B306     1.0000 0.50000  0.63051  0.72128  Biso   1.000  B 
  B307     1.0000 0.50000  0.68442  0.73248  Biso   1.000  B 
  B308     1.0000 0.50000  0.70500  0.79499  Biso   1.000  B 
  B309     1.0000 0.50000  0.76751  0.81558  Biso   1.000  B 
  B310     1.0000 0.50000  0.81563  0.76751  Biso   1.000  B 
  B311     1.0000 0.50000  0.86954  0.77872  Biso   1.000  B 
  N110     1.0000 0.49938  0.78859  0.88574  Biso   1.000  N 
  B312     1.0000 0.50000  0.67046  0.90470  Biso   1.000  B 
  B313     1.0000 0.50000  0.65360  0.84639  Biso   1.000  B 
  B314     1.0000 0.50000  0.59529  0.82953  Biso   1.000  B 
  N111     1.0000 0.49711  0.65392  0.60436  Biso   1.000  N 
  N112     1.0000 0.49652  0.59643  0.59625  Biso   1.000  N 
  N113     1.0000 0.50278  0.84788  0.89342  Biso   1.000  N 
  N114     1.0000 0.50562  0.90576  0.89858  Biso   1.000  N 
  B315     1.0000 0.50000  0.34640  0.15360  Biso   1.000  B 
  B316     1.0000 0.50000  0.40471  0.17046  Biso   1.000  B 
  B317     1.0000 0.50000  0.32954  0.09529  Biso   1.000  B 
  B318     1.0000 0.50000  0.29500  0.20500  Biso   1.000  B 
  B319     1.0000 0.50000  0.23249  0.18437  Biso   1.000  B 
  N115     1.0000 0.49697  0.21321  0.11400  Biso   1.000  N 
  B320     1.0000 0.50000  0.13051  0.22128  Biso   1.000  B 
  B321     1.0000 0.50000  0.18442  0.23249  Biso   1.000  B 
  B322     1.0000 0.50000  0.20500  0.29500  Biso   1.000  B 
  B323     1.0000 0.50000  0.26751  0.31558  Biso   1.000  B 
  B324     1.0000 0.50000  0.31563  0.26751  Biso   1.000  B 
  B325     1.0000 0.50000  0.36954  0.27872  Biso   1.000  B 
  N116     1.0000 0.50080  0.28775  0.38588  Biso   1.000  N 
  B326     1.0000 0.50000  0.17046  0.40470  Biso   1.000  B 
  B327     1.0000 0.50000  0.15360  0.34640  Biso   1.000  B 
  B328     1.0000 0.50000  0.09529  0.32954  Biso   1.000  B 
  N117     1.0000 0.49787  0.15452  0.10404  Biso   1.000  N 
  N118     1.0000 0.49929  0.09713  0.09575  Biso   1.000  N 
  N119     1.0000 0.50143  0.34684  0.39440  Biso   1.000  N 
  N120     1.0000 0.50143  0.40460  0.40058  Biso   1.000  N 
  B329     1.0000 0.00000  0.84640  0.84640  Biso   1.000  B 
  B330     1.0000 0.00000  0.90471  0.82954  Biso   1.000  B 
  B331     1.0000 0.00000  0.82954  0.90471  Biso   1.000  B 
  B332     1.0000 0.00000  0.79500  0.79500  Biso   1.000  B 
  B333     1.0000 0.00000  0.73249  0.81563  Biso   1.000  B 
  N121     1.0000 0.99329  0.71403  0.88544  Biso   1.000  N 
  B334     1.0000 0.00000  0.63051  0.77872  Biso   1.000  B 
  B335     1.0000 0.00000  0.68442  0.76752  Biso   1.000  B 
  B336     1.0000 0.00000  0.70500  0.70501  Biso   1.000  B 
  B337     1.0000 0.00000  0.76751  0.68442  Biso   1.000  B 
  B338     1.0000 0.00000  0.81563  0.73249  Biso   1.000  B 
  B339     1.0000 0.00000  0.86954  0.72128  Biso   1.000  B 
  N122     1.0000 0.00937  0.78591  0.61487  Biso   1.000  N 
  B340     1.0000 0.00000  0.67046  0.59530  Biso   1.000  B 
  B341     1.0000 0.00000  0.65360  0.65361  Biso   1.000  B 
  B342     1.0000 0.00000  0.59529  0.67047  Biso   1.000  B 
  N123     1.0000 0.94391  0.68365  0.89581  Biso   1.000  N 
  N124     1.0000 0.89527  0.65404  0.90377  Biso   1.000  N 
  N125     1.0000 0.05980  0.81516  0.60619  Biso   1.000  N 
  N126     1.0000 0.10938  0.84367  0.59987  Biso   1.000  N 
  B343     1.0000 0.00000  0.34640  0.34640  Biso   1.000  B 
  B344     1.0000 0.00000  0.40471  0.32954  Biso   1.000  B 
  B345     1.0000 0.00000  0.32954  0.40471  Biso   1.000  B 
  B346     1.0000 0.00000  0.29500  0.29500  Biso   1.000  B 
  B347     1.0000 0.00000  0.23249  0.31563  Biso   1.000  B 
  N127     1.0000 0.99560  0.21404  0.38555  Biso   1.000  N 
  B348     1.0000 0.00000  0.13051  0.27872  Biso   1.000  B 
  B349     1.0000 0.00000  0.18442  0.26751  Biso   1.000  B 
  B350     1.0000 0.00000  0.20500  0.20500  Biso   1.000  B 
  B351     1.0000 0.00000  0.26751  0.18442  Biso   1.000  B 
  B352     1.0000 0.00000  0.31563  0.23249  Biso   1.000  B 
  B353     1.0000 0.00000  0.36954  0.22128  Biso   1.000  B 
  N128     1.0000 0.00505  0.28601  0.11457  Biso   1.000  N 
  B354     1.0000 0.00000  0.17046  0.09530  Biso   1.000  B 
  B355     1.0000 0.00000  0.15360  0.15360  Biso   1.000  B 
  B356     1.0000 0.00000  0.09529  0.17046  Biso   1.000  B 
  N129     1.0000 0.94713  0.18280  0.39720  Biso   1.000  N 
  N130     1.0000 0.89933  0.15224  0.40639  Biso   1.000  N 
  N131     1.0000 0.05437  0.31616  0.10355  Biso   1.000  N 
  N132     1.0000 0.10306  0.34558  0.09528  Biso   1.000  N 
  B357     1.0000 0.50000  0.84640  0.34640  Biso   1.000  B 
  B358     1.0000 0.50000  0.90471  0.32954  Biso   1.000  B 
  B359     1.0000 0.50000  0.82954  0.40471  Biso   1.000  B 
  B360     1.0000 0.50000  0.79500  0.29500  Biso   1.000  B 
  B361     1.0000 0.50000  0.73249  0.31563  Biso   1.000  B 
  N133     1.0000 0.49308  0.71397  0.38542  Biso   1.000  N 
  B362     1.0000 0.50000  0.63051  0.27872  Biso   1.000  B 
  B363     1.0000 0.50000  0.68442  0.26751  Biso   1.000  B 
  B364     1.0000 0.50000  0.70500  0.20500  Biso   1.000  B 
  B365     1.0000 0.50000  0.76751  0.18442  Biso   1.000  B 
  B366     1.0000 0.50000  0.81563  0.23249  Biso   1.000  B 
  B367     1.0000 0.50000  0.86954  0.22128  Biso   1.000  B 
  N134     1.0000 0.50689  0.78588  0.11462  Biso   1.000  N 
  B368     1.0000 0.50000  0.67046  0.09530  Biso   1.000  B 
  B369     1.0000 0.50000  0.65360  0.15360  Biso   1.000  B 
  B370     1.0000 0.50000  0.59529  0.17046  Biso   1.000  B 
  N135     1.0000 0.44388  0.68324  0.39570  Biso   1.000  N 
  N136     1.0000 0.39545  0.65328  0.40372  Biso   1.000  N 
  N137     1.0000 0.55615  0.81649  0.10446  Biso   1.000  N 
  N138     1.0000 0.60459  0.84648  0.09668  Biso   1.000  N 
  B371     1.0000 0.50000  0.34640  0.84640  Biso   1.000  B 
  B372     1.0000 0.50000  0.40471  0.82954  Biso   1.000  B 
  B373     1.0000 0.50000  0.32954  0.90471  Biso   1.000  B 
  B374     1.0000 0.50000  0.29500  0.79500  Biso   1.000  B 
  B375     1.0000 0.50000  0.23249  0.81563  Biso   1.000  B 
  N139     1.0000 0.49123  0.21396  0.88522  Biso   1.000  N 
  B376     1.0000 0.50000  0.13051  0.77872  Biso   1.000  B 
  B377     1.0000 0.50000  0.18442  0.76752  Biso   1.000  B 
  B378     1.0000 0.50000  0.20500  0.70501  Biso   1.000  B 
  B379     1.0000 0.50000  0.26751  0.68442  Biso   1.000  B 
  B380     1.0000 0.50000  0.31563  0.73249  Biso   1.000  B 
  B381     1.0000 0.50000  0.36954  0.72128  Biso   1.000  B 
  N140     1.0000 0.50739  0.28594  0.61468  Biso   1.000  N 
  B382     1.0000 0.50000  0.17046  0.59530  Biso   1.000  B 
  B383     1.0000 0.50000  0.15360  0.65361  Biso   1.000  B 
  B384     1.0000 0.50000  0.09529  0.67047  Biso   1.000  B 
  N141     1.0000 0.44119  0.18417  0.89431  Biso   1.000  N 
  N142     1.0000 0.39200  0.15514  0.90114  Biso   1.000  N 
  N143     1.0000 0.55705  0.31604  0.60487  Biso   1.000  N 
  N144     1.0000 0.60589  0.34548  0.59749  Biso   1.000  N 
