data_image0
_cell_length_a       20.7004
_cell_length_b       20.7004
_cell_length_c       20.7004
_cell_angle_alpha    90
_cell_angle_beta     90
_cell_angle_gamma    90

_symmetry_space_group_name_H-M    "P 1"
_symmetry_int_tables_number       1

loop_
  _symmetry_equiv_pos_as_xyz
  'x, y, z'

loop_
  _atom_site_label
  _atom_site_occupancy
  _atom_site_fract_x
  _atom_site_fract_y
  _atom_site_fract_z
  _atom_site_thermal_displace_type
  _atom_site_B_iso_or_equiv
  _atom_site_type_symbol
  B1       1.0000 0.11989  0.00000  0.00000  Biso   1.000  B 
  B2       1.0000 0.11989  0.50000  0.50000  Biso   1.000  B 
  B3       1.0000 0.61989  0.00000  0.50000  Biso   1.000  B 
  B4       1.0000 0.61989  0.50000  0.00000  Biso   1.000  B 
  B5       1.0000 0.88011  0.00000  0.00000  Biso   1.000  B 
  B6       1.0000 0.88011  0.50000  0.50000  Biso   1.000  B 
  B7       1.0000 0.38011  0.00000  0.50000  Biso   1.000  B 
  B8       1.0000 0.38011  0.50000  0.00000  Biso   1.000  B 
  B9       1.0000 0.00000  0.11989  0.00000  Biso   1.000  B 
  B10      1.0000 0.00000  0.61989  0.50000  Biso   1.000  B 
  B11      1.0000 0.50000  0.11989  0.50000  Biso   1.000  B 
  B12      1.0000 0.50000  0.61989  0.00000  Biso   1.000  B 
  B13      1.0000 0.00000  0.88011  0.00000  Biso   1.000  B 
  B14      1.0000 0.00000  0.38011  0.50000  Biso   1.000  B 
  B15      1.0000 0.50000  0.88011  0.50000  Biso   1.000  B 
  B16      1.0000 0.50000  0.38011  0.00000  Biso   1.000  B 
  B17      1.0000 0.00000  0.00000  0.11989  Biso   1.000  B 
  B18      1.0000 0.00000  0.50000  0.61989  Biso   1.000  B 
  B19      1.0000 0.50000  0.00000  0.61989  Biso   1.000  B 
  B20      1.0000 0.50000  0.50000  0.11989  Biso   1.000  B 
  B21      1.0000 0.00000  0.00000  0.88011  Biso   1.000  B 
  B22      1.0000 0.00000  0.50000  0.38011  Biso   1.000  B 
  B23      1.0000 0.50000  0.00000  0.38011  Biso   1.000  B 
  B24      1.0000 0.50000  0.50000  0.88011  Biso   1.000  B 
  B25      1.0000 0.05610  0.44390  0.44390  Biso   1.000  B 
  B26      1.0000 0.55610  0.94390  0.44390  Biso   1.000  B 
  B27      1.0000 0.55610  0.44390  0.94390  Biso   1.000  B 
  B28      1.0000 0.44390  0.05610  0.44390  Biso   1.000  B 
  B29      1.0000 0.44390  0.55610  0.94390  Biso   1.000  B 
  B30      1.0000 0.94390  0.94390  0.05610  Biso   1.000  B 
  B31      1.0000 0.94390  0.44390  0.55610  Biso   1.000  B 
  B32      1.0000 0.05610  0.05610  0.05610  Biso   1.000  B 
  B33      1.0000 0.55610  0.55610  0.05610  Biso   1.000  B 
  B34      1.0000 0.94390  0.05610  0.05610  Biso   1.000  B 
  B35      1.0000 0.94390  0.55610  0.55610  Biso   1.000  B 
  B36      1.0000 0.44390  0.05610  0.55610  Biso   1.000  B 
  B37      1.0000 0.44390  0.55610  0.05610  Biso   1.000  B 
  B38      1.0000 0.05610  0.94390  0.05610  Biso   1.000  B 
  B39      1.0000 0.05610  0.44390  0.55610  Biso   1.000  B 
  B40      1.0000 0.55610  0.94390  0.55610  Biso   1.000  B 
  B41      1.0000 0.55610  0.44390  0.05610  Biso   1.000  B 
  B42      1.0000 0.94390  0.94390  0.94390  Biso   1.000  B 
  B43      1.0000 0.94390  0.44390  0.44390  Biso   1.000  B 
  B44      1.0000 0.44390  0.94390  0.44390  Biso   1.000  B 
  B45      1.0000 0.44390  0.44390  0.94390  Biso   1.000  B 
  B46      1.0000 0.05610  0.05610  0.94390  Biso   1.000  B 
  B47      1.0000 0.05610  0.55610  0.44390  Biso   1.000  B 
  B48      1.0000 0.55610  0.05610  0.44390  Biso   1.000  B 
  B49      1.0000 0.15360  0.00000  0.84640  Biso   1.000  B 
  B50      1.0000 0.17046  0.00000  0.90471  Biso   1.000  B 
  B51      1.0000 0.09529  0.00000  0.82954  Biso   1.000  B 
  B52      1.0000 0.20500  0.00000  0.79500  Biso   1.000  B 
  B53      1.0000 0.18437  0.00000  0.73249  Biso   1.000  B 
  F1       1.0000 0.11783  0.00000  0.71531  Biso   1.000  F 
  F2       1.0000 0.21599  1.00000  0.61557  Biso   1.000  F 
  B54      1.0000 0.23249  0.00000  0.68442  Biso   1.000  B 
  B55      1.0000 0.29500  0.00000  0.70500  Biso   1.000  B 
  B56      1.0000 0.31558  0.00000  0.76751  Biso   1.000  B 
  B57      1.0000 0.26751  0.00000  0.81563  Biso   1.000  B 
  F3       1.0000 0.28470  1.00000  0.88217  Biso   1.000  F 
  F4       1.0000 0.38444  0.00000  0.78400  Biso   1.000  F 
  B58      1.0000 0.40470  0.00000  0.67046  Biso   1.000  B 
  B59      1.0000 0.34640  0.00000  0.65360  Biso   1.000  B 
  B60      1.0000 0.32954  0.00000  0.59529  Biso   1.000  B 
  B61      1.0000 0.15360  0.50000  0.34640  Biso   1.000  B 
  B62      1.0000 0.17046  0.50000  0.40471  Biso   1.000  B 
  B63      1.0000 0.09529  0.50000  0.32954  Biso   1.000  B 
  B64      1.0000 0.20500  0.50000  0.29500  Biso   1.000  B 
  B65      1.0000 0.18437  0.50000  0.23249  Biso   1.000  B 
  F5       1.0000 0.11783  0.50001  0.21530  Biso   1.000  F 
  F6       1.0000 0.21599  0.49999  0.11557  Biso   1.000  F 
  B66      1.0000 0.23249  0.50000  0.18442  Biso   1.000  B 
  B67      1.0000 0.29500  0.50000  0.20500  Biso   1.000  B 
  B68      1.0000 0.31558  0.50000  0.26751  Biso   1.000  B 
  B69      1.0000 0.26751  0.50000  0.31563  Biso   1.000  B 
  F7       1.0000 0.28470  0.50001  0.38217  Biso   1.000  F 
  F8       1.0000 0.38444  0.49999  0.28401  Biso   1.000  F 
  B70      1.0000 0.40470  0.50000  0.17046  Biso   1.000  B 
  B71      1.0000 0.34640  0.50000  0.15360  Biso   1.000  B 
  B72      1.0000 0.32954  0.50000  0.09529  Biso   1.000  B 
  B73      1.0000 0.65360  0.00000  0.34640  Biso   1.000  B 
  B74      1.0000 0.67046  0.00000  0.40471  Biso   1.000  B 
  B75      1.0000 0.59529  0.00000  0.32954  Biso   1.000  B 
  B76      1.0000 0.70500  0.00000  0.29500  Biso   1.000  B 
  B77      1.0000 0.68437  0.00000  0.23249  Biso   1.000  B 
  F9       1.0000 0.61783  0.00000  0.21530  Biso   1.000  F 
  F10      1.0000 0.71598  0.00000  0.11556  Biso   1.000  F 
  B78      1.0000 0.73248  0.00000  0.18442  Biso   1.000  B 
  B79      1.0000 0.79499  0.00000  0.20500  Biso   1.000  B 
  B80      1.0000 0.81558  0.00000  0.26751  Biso   1.000  B 
  B81      1.0000 0.76751  0.00000  0.31563  Biso   1.000  B 
  F11      1.0000 0.78471  0.00000  0.38217  Biso   1.000  F 
  F12      1.0000 0.88444  1.00000  0.28401  Biso   1.000  F 
  B82      1.0000 0.90470  0.00000  0.17046  Biso   1.000  B 
  B83      1.0000 0.84639  0.00000  0.15360  Biso   1.000  B 
  B84      1.0000 0.82953  0.00000  0.09529  Biso   1.000  B 
  B85      1.0000 0.65360  0.50000  0.84640  Biso   1.000  B 
  B86      1.0000 0.67046  0.50000  0.90471  Biso   1.000  B 
  B87      1.0000 0.59529  0.50000  0.82954  Biso   1.000  B 
  B88      1.0000 0.70500  0.50000  0.79500  Biso   1.000  B 
  B89      1.0000 0.68437  0.50000  0.73249  Biso   1.000  B 
  F13      1.0000 0.61783  0.50000  0.71530  Biso   1.000  F 
  F14      1.0000 0.71599  0.50000  0.61556  Biso   1.000  F 
  B90      1.0000 0.73248  0.50000  0.68442  Biso   1.000  B 
  B91      1.0000 0.79499  0.50000  0.70500  Biso   1.000  B 
  B92      1.0000 0.81558  0.50000  0.76751  Biso   1.000  B 
  B93      1.0000 0.76751  0.50000  0.81563  Biso   1.000  B 
  F15      1.0000 0.78470  0.50000  0.88216  Biso   1.000  F 
  F16      1.0000 0.88445  0.50000  0.78400  Biso   1.000  F 
  B94      1.0000 0.90470  0.50000  0.67046  Biso   1.000  B 
  B95      1.0000 0.84639  0.50000  0.65360  Biso   1.000  B 
  B96      1.0000 0.82953  0.50000  0.59529  Biso   1.000  B 
  B97      1.0000 0.84640  0.00000  0.84640  Biso   1.000  B 
  B98      1.0000 0.82954  0.00000  0.90471  Biso   1.000  B 
  B99      1.0000 0.90471  0.00000  0.82954  Biso   1.000  B 
  B100     1.0000 0.79500  0.00000  0.79500  Biso   1.000  B 
  B101     1.0000 0.81563  0.00000  0.73249  Biso   1.000  B 
  F17      1.0000 0.88217  0.00000  0.71531  Biso   1.000  F 
  F18      1.0000 0.78400  0.00000  0.61555  Biso   1.000  F 
  B102     1.0000 0.76752  0.00000  0.68442  Biso   1.000  B 
  B103     1.0000 0.70501  0.00000  0.70500  Biso   1.000  B 
  B104     1.0000 0.68442  0.00000  0.76751  Biso   1.000  B 
  B105     1.0000 0.73249  0.00000  0.81563  Biso   1.000  B 
  F19      1.0000 0.71531  0.00000  0.88215  Biso   1.000  F 
  F20      1.0000 0.61556  0.00000  0.78400  Biso   1.000  F 
  B106     1.0000 0.59530  0.00000  0.67046  Biso   1.000  B 
  B107     1.0000 0.65361  0.00000  0.65360  Biso   1.000  B 
  B108     1.0000 0.67047  0.00000  0.59529  Biso   1.000  B 
  B109     1.0000 0.84640  0.50000  0.34640  Biso   1.000  B 
  B110     1.0000 0.82954  0.50000  0.40471  Biso   1.000  B 
  B111     1.0000 0.90471  0.50000  0.32954  Biso   1.000  B 
  B112     1.0000 0.79500  0.50000  0.29500  Biso   1.000  B 
  B113     1.0000 0.81563  0.50000  0.23249  Biso   1.000  B 
  F21      1.0000 0.88217  0.50001  0.21530  Biso   1.000  F 
  F22      1.0000 0.78401  0.50000  0.11554  Biso   1.000  F 
  B114     1.0000 0.76752  0.50000  0.18442  Biso   1.000  B 
  B115     1.0000 0.70501  0.50000  0.20500  Biso   1.000  B 
  B116     1.0000 0.68442  0.50000  0.26751  Biso   1.000  B 
  B117     1.0000 0.73249  0.50000  0.31563  Biso   1.000  B 
  F23      1.0000 0.71530  0.50001  0.38215  Biso   1.000  F 
  F24      1.0000 0.61555  0.49999  0.28401  Biso   1.000  F 
  B118     1.0000 0.59530  0.50000  0.17046  Biso   1.000  B 
  B119     1.0000 0.65361  0.50000  0.15360  Biso   1.000  B 
  B120     1.0000 0.67047  0.50000  0.09529  Biso   1.000  B 
  B121     1.0000 0.34640  0.00000  0.34640  Biso   1.000  B 
  B122     1.0000 0.32954  0.00000  0.40471  Biso   1.000  B 
  B123     1.0000 0.40471  0.00000  0.32954  Biso   1.000  B 
  B124     1.0000 0.29500  0.00000  0.29500  Biso   1.000  B 
  B125     1.0000 0.31563  0.00000  0.23249  Biso   1.000  B 
  F25      1.0000 0.38217  0.00000  0.21530  Biso   1.000  F 
  F26      1.0000 0.28401  0.00000  0.11554  Biso   1.000  F 
  B126     1.0000 0.26751  0.00000  0.18442  Biso   1.000  B 
  B127     1.0000 0.20500  0.00000  0.20500  Biso   1.000  B 
  B128     1.0000 0.18442  0.00000  0.26751  Biso   1.000  B 
  B129     1.0000 0.23249  0.00000  0.31563  Biso   1.000  B 
  F27      1.0000 0.21530  0.00000  0.38216  Biso   1.000  F 
  F28      1.0000 0.11556  0.00000  0.28401  Biso   1.000  F 
  B130     1.0000 0.09530  0.00000  0.17046  Biso   1.000  B 
  B131     1.0000 0.15360  0.00000  0.15360  Biso   1.000  B 
  B132     1.0000 0.17046  0.00000  0.09529  Biso   1.000  B 
  B133     1.0000 0.34640  0.50000  0.84640  Biso   1.000  B 
  B134     1.0000 0.32954  0.50000  0.90471  Biso   1.000  B 
  B135     1.0000 0.40471  0.50000  0.82954  Biso   1.000  B 
  B136     1.0000 0.29500  0.50000  0.79500  Biso   1.000  B 
  B137     1.0000 0.31563  0.50000  0.73249  Biso   1.000  B 
  F29      1.0000 0.38217  0.50000  0.71530  Biso   1.000  F 
  F30      1.0000 0.28401  0.50001  0.61555  Biso   1.000  F 
  B138     1.0000 0.26751  0.50000  0.68442  Biso   1.000  B 
  B139     1.0000 0.20500  0.50000  0.70500  Biso   1.000  B 
  B140     1.0000 0.18442  0.50000  0.76751  Biso   1.000  B 
  B141     1.0000 0.23249  0.50000  0.81563  Biso   1.000  B 
  F31      1.0000 0.21530  0.50000  0.88216  Biso   1.000  F 
  F32      1.0000 0.11556  0.50001  0.78401  Biso   1.000  F 
  B142     1.0000 0.09530  0.50000  0.67046  Biso   1.000  B 
  B143     1.0000 0.15360  0.50000  0.65360  Biso   1.000  B 
  B144     1.0000 0.17046  0.50000  0.59529  Biso   1.000  B 
  B145     1.0000 0.84640  0.15360  0.00000  Biso   1.000  B 
  B146     1.0000 0.90471  0.17046  0.00000  Biso   1.000  B 
  B147     1.0000 0.82954  0.09529  0.00000  Biso   1.000  B 
  B148     1.0000 0.79500  0.20500  0.00000  Biso   1.000  B 
  B149     1.0000 0.73249  0.18437  0.00000  Biso   1.000  B 
  F33      1.0000 0.71530  0.11783  0.99999  Biso   1.000  F 
  F34      1.0000 0.61556  0.21599  0.00001  Biso   1.000  F 
  B150     1.0000 0.68442  0.23249  0.00000  Biso   1.000  B 
  B151     1.0000 0.70500  0.29500  0.00000  Biso   1.000  B 
  B152     1.0000 0.76751  0.31558  0.00000  Biso   1.000  B 
  B153     1.0000 0.81563  0.26751  0.00000  Biso   1.000  B 
  F35      1.0000 0.88216  0.28470  0.99999  Biso   1.000  F 
  F36      1.0000 0.78400  0.38444  0.00000  Biso   1.000  F 
  B154     1.0000 0.67046  0.40470  0.00000  Biso   1.000  B 
  B155     1.0000 0.65360  0.34640  0.00000  Biso   1.000  B 
  B156     1.0000 0.59529  0.32954  0.00000  Biso   1.000  B 
  B157     1.0000 0.84640  0.65360  0.50000  Biso   1.000  B 
  B158     1.0000 0.90471  0.67046  0.50000  Biso   1.000  B 
  B159     1.0000 0.82954  0.59529  0.50000  Biso   1.000  B 
  B160     1.0000 0.79500  0.70500  0.50000  Biso   1.000  B 
  B161     1.0000 0.73249  0.68437  0.50000  Biso   1.000  B 
  F37      1.0000 0.71530  0.61783  0.49999  Biso   1.000  F 
  F38      1.0000 0.61556  0.71599  0.50001  Biso   1.000  F 
  B162     1.0000 0.68442  0.73248  0.50000  Biso   1.000  B 
  B163     1.0000 0.70500  0.79499  0.50000  Biso   1.000  B 
  B164     1.0000 0.76751  0.81558  0.50000  Biso   1.000  B 
  B165     1.0000 0.81563  0.76751  0.50000  Biso   1.000  B 
  F39      1.0000 0.88217  0.78470  0.49999  Biso   1.000  F 
  F40      1.0000 0.78400  0.88445  0.50000  Biso   1.000  F 
  B166     1.0000 0.67046  0.90470  0.50000  Biso   1.000  B 
  B167     1.0000 0.65360  0.84639  0.50000  Biso   1.000  B 
  B168     1.0000 0.59529  0.82953  0.50000  Biso   1.000  B 
  B169     1.0000 0.34640  0.15360  0.50000  Biso   1.000  B 
  B170     1.0000 0.40471  0.17046  0.50000  Biso   1.000  B 
  B171     1.0000 0.32954  0.09529  0.50000  Biso   1.000  B 
  B172     1.0000 0.29500  0.20500  0.50000  Biso   1.000  B 
  B173     1.0000 0.23249  0.18437  0.50000  Biso   1.000  B 
  F41      1.0000 0.21529  0.11783  0.50000  Biso   1.000  F 
  F42      1.0000 0.11556  0.21598  0.50000  Biso   1.000  F 
  B174     1.0000 0.18442  0.23249  0.50000  Biso   1.000  B 
  B175     1.0000 0.20500  0.29500  0.50000  Biso   1.000  B 
  B176     1.0000 0.26751  0.31558  0.50000  Biso   1.000  B 
  B177     1.0000 0.31563  0.26751  0.50000  Biso   1.000  B 
  F43      1.0000 0.38217  0.28471  0.50000  Biso   1.000  F 
  F44      1.0000 0.28401  0.38445  0.50000  Biso   1.000  F 
  B178     1.0000 0.17046  0.40470  0.50000  Biso   1.000  B 
  B179     1.0000 0.15360  0.34640  0.50000  Biso   1.000  B 
  B180     1.0000 0.09529  0.32954  0.50000  Biso   1.000  B 
  B181     1.0000 0.34640  0.65360  0.00000  Biso   1.000  B 
  B182     1.0000 0.40471  0.67046  0.00000  Biso   1.000  B 
  B183     1.0000 0.32954  0.59529  0.00000  Biso   1.000  B 
  B184     1.0000 0.29500  0.70500  0.00000  Biso   1.000  B 
  B185     1.0000 0.23249  0.68437  0.00000  Biso   1.000  B 
  F45      1.0000 0.21530  0.61783  0.00001  Biso   1.000  F 
  F46      1.0000 0.11557  0.71599  0.99999  Biso   1.000  F 
  B186     1.0000 0.18442  0.73248  0.00000  Biso   1.000  B 
  B187     1.0000 0.20500  0.79499  0.00000  Biso   1.000  B 
  B188     1.0000 0.26751  0.81558  0.00000  Biso   1.000  B 
  B189     1.0000 0.31563  0.76751  0.00000  Biso   1.000  B 
  F47      1.0000 0.38217  0.78470  0.00000  Biso   1.000  F 
  F48      1.0000 0.28401  0.88444  0.99999  Biso   1.000  F 
  B190     1.0000 0.17046  0.90470  0.00000  Biso   1.000  B 
  B191     1.0000 0.15360  0.84639  0.00000  Biso   1.000  B 
  B192     1.0000 0.09529  0.82953  0.00000  Biso   1.000  B 
  B193     1.0000 0.84640  0.84640  0.00000  Biso   1.000  B 
  B194     1.0000 0.90471  0.82954  0.00000  Biso   1.000  B 
  B195     1.0000 0.82954  0.90471  0.00000  Biso   1.000  B 
  B196     1.0000 0.79500  0.79500  0.00000  Biso   1.000  B 
  B197     1.0000 0.73249  0.81563  0.00000  Biso   1.000  B 
  F49      1.0000 0.71530  0.88217  0.00000  Biso   1.000  F 
  F50      1.0000 0.61555  0.78401  1.00000  Biso   1.000  F 
  B198     1.0000 0.68442  0.76752  0.00000  Biso   1.000  B 
  B199     1.0000 0.70500  0.70501  0.00000  Biso   1.000  B 
  B200     1.0000 0.76751  0.68442  0.00000  Biso   1.000  B 
  B201     1.0000 0.81563  0.73249  0.00000  Biso   1.000  B 
  F51      1.0000 0.88216  0.71530  0.00000  Biso   1.000  F 
  F52      1.0000 0.78401  0.61556  1.00000  Biso   1.000  F 
  B202     1.0000 0.67046  0.59530  0.00000  Biso   1.000  B 
  B203     1.0000 0.65360  0.65361  0.00000  Biso   1.000  B 
  B204     1.0000 0.59529  0.67047  0.00000  Biso   1.000  B 
  B205     1.0000 0.84640  0.34640  0.50000  Biso   1.000  B 
  B206     1.0000 0.90471  0.32954  0.50000  Biso   1.000  B 
  B207     1.0000 0.82954  0.40471  0.50000  Biso   1.000  B 
  B208     1.0000 0.79500  0.29500  0.50000  Biso   1.000  B 
  B209     1.0000 0.73249  0.31563  0.50000  Biso   1.000  B 
  F53      1.0000 0.71530  0.38217  0.50000  Biso   1.000  F 
  F54      1.0000 0.61555  0.28401  0.50001  Biso   1.000  F 
  B210     1.0000 0.68442  0.26751  0.50000  Biso   1.000  B 
  B211     1.0000 0.70500  0.20500  0.50000  Biso   1.000  B 
  B212     1.0000 0.76751  0.18442  0.50000  Biso   1.000  B 
  B213     1.0000 0.81563  0.23249  0.50000  Biso   1.000  B 
  F55      1.0000 0.88215  0.21530  0.50000  Biso   1.000  F 
  F56      1.0000 0.78401  0.11557  0.50001  Biso   1.000  F 
  B214     1.0000 0.67046  0.09530  0.50000  Biso   1.000  B 
  B215     1.0000 0.65360  0.15360  0.50000  Biso   1.000  B 
  B216     1.0000 0.59529  0.17046  0.50000  Biso   1.000  B 
  B217     1.0000 0.34640  0.84640  0.50000  Biso   1.000  B 
  B218     1.0000 0.40471  0.82954  0.50000  Biso   1.000  B 
  B219     1.0000 0.32954  0.90471  0.50000  Biso   1.000  B 
  B220     1.0000 0.29500  0.79500  0.50000  Biso   1.000  B 
  B221     1.0000 0.23249  0.81563  0.50000  Biso   1.000  B 
  F57      1.0000 0.21531  0.88217  0.50000  Biso   1.000  F 
  F58      1.0000 0.11554  0.78400  0.50000  Biso   1.000  F 
  B222     1.0000 0.18442  0.76752  0.50000  Biso   1.000  B 
  B223     1.0000 0.20500  0.70501  0.50000  Biso   1.000  B 
  B224     1.0000 0.26751  0.68442  0.50000  Biso   1.000  B 
  B225     1.0000 0.31563  0.73249  0.50000  Biso   1.000  B 
  F59      1.0000 0.38215  0.71531  0.50000  Biso   1.000  F 
  F60      1.0000 0.28401  0.61556  0.50000  Biso   1.000  F 
  B226     1.0000 0.17046  0.59530  0.50000  Biso   1.000  B 
  B227     1.0000 0.15360  0.65361  0.50000  Biso   1.000  B 
  B228     1.0000 0.09529  0.67047  0.50000  Biso   1.000  B 
  B229     1.0000 0.34640  0.34640  0.00000  Biso   1.000  B 
  B230     1.0000 0.40471  0.32954  0.00000  Biso   1.000  B 
  B231     1.0000 0.32954  0.40471  0.00000  Biso   1.000  B 
  B232     1.0000 0.29500  0.29500  0.00000  Biso   1.000  B 
  B233     1.0000 0.23249  0.31563  0.00000  Biso   1.000  B 
  F61      1.0000 0.21530  0.38216  0.00001  Biso   1.000  F 
  F62      1.0000 0.11554  0.28401  0.99999  Biso   1.000  F 
  B234     1.0000 0.18442  0.26751  0.00000  Biso   1.000  B 
  B235     1.0000 0.20500  0.20500  0.00000  Biso   1.000  B 
  B236     1.0000 0.26751  0.18442  0.00000  Biso   1.000  B 
  B237     1.0000 0.31563  0.23249  0.00000  Biso   1.000  B 
  F63      1.0000 0.38215  0.21530  0.00001  Biso   1.000  F 
  F64      1.0000 0.28401  0.11556  0.99999  Biso   1.000  F 
  B238     1.0000 0.17046  0.09530  0.00000  Biso   1.000  B 
  B239     1.0000 0.15360  0.15360  0.00000  Biso   1.000  B 
  B240     1.0000 0.09529  0.17046  0.00000  Biso   1.000  B 
  B241     1.0000 0.00000  0.84640  0.15360  Biso   1.000  B 
  B242     1.0000 0.00000  0.90471  0.17046  Biso   1.000  B 
  B243     1.0000 0.00000  0.82954  0.09529  Biso   1.000  B 
  B244     1.0000 0.00000  0.79500  0.20500  Biso   1.000  B 
  B245     1.0000 0.00000  0.73249  0.18437  Biso   1.000  B 
  F65      1.0000 0.00001  0.71530  0.11783  Biso   1.000  F 
  F66      1.0000 0.99999  0.61557  0.21599  Biso   1.000  F 
  B246     1.0000 0.00000  0.68442  0.23249  Biso   1.000  B 
  B247     1.0000 0.00000  0.70500  0.29500  Biso   1.000  B 
  B248     1.0000 0.00000  0.76751  0.31558  Biso   1.000  B 
  B249     1.0000 0.00000  0.81563  0.26751  Biso   1.000  B 
  F67      1.0000 0.00000  0.88217  0.28470  Biso   1.000  F 
  F68      1.0000 0.99999  0.78401  0.38444  Biso   1.000  F 
  B250     1.0000 0.00000  0.67046  0.40470  Biso   1.000  B 
  B251     1.0000 0.00000  0.65360  0.34640  Biso   1.000  B 
  B252     1.0000 0.00000  0.59529  0.32954  Biso   1.000  B 
  B253     1.0000 0.00000  0.34640  0.65360  Biso   1.000  B 
  B254     1.0000 0.00000  0.40471  0.67046  Biso   1.000  B 
  B255     1.0000 0.00000  0.32954  0.59529  Biso   1.000  B 
  B256     1.0000 0.00000  0.29500  0.70500  Biso   1.000  B 
  B257     1.0000 0.00000  0.23249  0.68437  Biso   1.000  B 
  F69      1.0000 0.00000  0.21530  0.61783  Biso   1.000  F 
  F70      1.0000 0.99999  0.11556  0.71599  Biso   1.000  F 
  B258     1.0000 0.00000  0.18442  0.73248  Biso   1.000  B 
  B259     1.0000 0.00000  0.20500  0.79499  Biso   1.000  B 
  B260     1.0000 0.00000  0.26751  0.81558  Biso   1.000  B 
  B261     1.0000 0.00000  0.31563  0.76751  Biso   1.000  B 
  F71      1.0000 0.00001  0.38217  0.78470  Biso   1.000  F 
  F72      1.0000 0.99999  0.28401  0.88443  Biso   1.000  F 
  B262     1.0000 0.00000  0.17046  0.90470  Biso   1.000  B 
  B263     1.0000 0.00000  0.15360  0.84639  Biso   1.000  B 
  B264     1.0000 0.00000  0.09529  0.82953  Biso   1.000  B 
  B265     1.0000 0.50000  0.84640  0.65360  Biso   1.000  B 
  B266     1.0000 0.50000  0.90471  0.67046  Biso   1.000  B 
  B267     1.0000 0.50000  0.82954  0.59529  Biso   1.000  B 
  B268     1.0000 0.50000  0.79500  0.70500  Biso   1.000  B 
  B269     1.0000 0.50000  0.73249  0.68437  Biso   1.000  B 
  F73      1.0000 0.49999  0.71530  0.61783  Biso   1.000  F 
  F74      1.0000 0.50001  0.61557  0.71599  Biso   1.000  F 
  B270     1.0000 0.50000  0.68442  0.73248  Biso   1.000  B 
  B271     1.0000 0.50000  0.70500  0.79499  Biso   1.000  B 
  B272     1.0000 0.50000  0.76751  0.81558  Biso   1.000  B 
  B273     1.0000 0.50000  0.81563  0.76751  Biso   1.000  B 
  F75      1.0000 0.49999  0.88217  0.78470  Biso   1.000  F 
  F76      1.0000 0.50001  0.78400  0.88444  Biso   1.000  F 
  B274     1.0000 0.50000  0.67046  0.90470  Biso   1.000  B 
  B275     1.0000 0.50000  0.65360  0.84639  Biso   1.000  B 
  B276     1.0000 0.50000  0.59529  0.82953  Biso   1.000  B 
  B277     1.0000 0.50000  0.34640  0.15360  Biso   1.000  B 
  B278     1.0000 0.50000  0.40471  0.17046  Biso   1.000  B 
  B279     1.0000 0.50000  0.32954  0.09529  Biso   1.000  B 
  B280     1.0000 0.50000  0.29500  0.20500  Biso   1.000  B 
  B281     1.0000 0.50000  0.23249  0.18437  Biso   1.000  B 
  F77      1.0000 0.49999  0.21530  0.11783  Biso   1.000  F 
  F78      1.0000 0.50000  0.11556  0.21599  Biso   1.000  F 
  B282     1.0000 0.50000  0.18442  0.23249  Biso   1.000  B 
  B283     1.0000 0.50000  0.20500  0.29500  Biso   1.000  B 
  B284     1.0000 0.50000  0.26751  0.31558  Biso   1.000  B 
  B285     1.0000 0.50000  0.31563  0.26751  Biso   1.000  B 
  F79      1.0000 0.49999  0.38216  0.28470  Biso   1.000  F 
  F80      1.0000 0.50000  0.28400  0.38445  Biso   1.000  F 
  B286     1.0000 0.50000  0.17046  0.40470  Biso   1.000  B 
  B287     1.0000 0.50000  0.15360  0.34640  Biso   1.000  B 
  B288     1.0000 0.50000  0.09529  0.32954  Biso   1.000  B 
  B289     1.0000 0.00000  0.84640  0.84640  Biso   1.000  B 
  B290     1.0000 0.00000  0.90471  0.82954  Biso   1.000  B 
  B291     1.0000 0.00000  0.82954  0.90471  Biso   1.000  B 
  B292     1.0000 0.00000  0.79500  0.79500  Biso   1.000  B 
  B293     1.0000 0.00000  0.73249  0.81563  Biso   1.000  B 
  F81      1.0000 0.00000  0.71531  0.88217  Biso   1.000  F 
  F82      1.0000 0.00000  0.61555  0.78401  Biso   1.000  F 
  B294     1.0000 0.00000  0.68442  0.76752  Biso   1.000  B 
  B295     1.0000 0.00000  0.70500  0.70501  Biso   1.000  B 
  B296     1.0000 0.00000  0.76751  0.68442  Biso   1.000  B 
  B297     1.0000 0.00000  0.81563  0.73249  Biso   1.000  B 
  F83      1.0000 0.00000  0.88216  0.71531  Biso   1.000  F 
  F84      1.0000 0.00000  0.78400  0.61556  Biso   1.000  F 
  B298     1.0000 0.00000  0.67046  0.59530  Biso   1.000  B 
  B299     1.0000 0.00000  0.65360  0.65361  Biso   1.000  B 
  B300     1.0000 0.00000  0.59529  0.67047  Biso   1.000  B 
  B301     1.0000 0.00000  0.34640  0.34640  Biso   1.000  B 
  B302     1.0000 0.00000  0.40471  0.32954  Biso   1.000  B 
  B303     1.0000 0.00000  0.32954  0.40471  Biso   1.000  B 
  B304     1.0000 0.00000  0.29500  0.29500  Biso   1.000  B 
  B305     1.0000 0.00000  0.23249  0.31563  Biso   1.000  B 
  F85      1.0000 0.00000  0.21529  0.38217  Biso   1.000  F 
  F86      1.0000 0.00000  0.11555  0.28402  Biso   1.000  F 
  B306     1.0000 0.00000  0.18442  0.26751  Biso   1.000  B 
  B307     1.0000 0.00000  0.20500  0.20500  Biso   1.000  B 
  B308     1.0000 0.00000  0.26751  0.18442  Biso   1.000  B 
  B309     1.0000 0.00000  0.31563  0.23249  Biso   1.000  B 
  F87      1.0000 0.00000  0.38216  0.21530  Biso   1.000  F 
  F88      1.0000 0.00000  0.28401  0.11555  Biso   1.000  F 
  B310     1.0000 0.00000  0.17046  0.09530  Biso   1.000  B 
  B311     1.0000 0.00000  0.15360  0.15360  Biso   1.000  B 
  B312     1.0000 0.00000  0.09529  0.17046  Biso   1.000  B 
  B313     1.0000 0.50000  0.84640  0.34640  Biso   1.000  B 
  B314     1.0000 0.50000  0.90471  0.32954  Biso   1.000  B 
  B315     1.0000 0.50000  0.82954  0.40471  Biso   1.000  B 
  B316     1.0000 0.50000  0.79500  0.29500  Biso   1.000  B 
  B317     1.0000 0.50000  0.73249  0.31563  Biso   1.000  B 
  F89      1.0000 0.50000  0.71530  0.38217  Biso   1.000  F 
  F90      1.0000 0.50000  0.61554  0.28401  Biso   1.000  F 
  B318     1.0000 0.50000  0.68442  0.26751  Biso   1.000  B 
  B319     1.0000 0.50000  0.70500  0.20500  Biso   1.000  B 
  B320     1.0000 0.50000  0.76751  0.18442  Biso   1.000  B 
  B321     1.0000 0.50000  0.81563  0.23249  Biso   1.000  B 
  F91      1.0000 0.50000  0.88215  0.21530  Biso   1.000  F 
  F92      1.0000 0.50000  0.78401  0.11556  Biso   1.000  F 
  B322     1.0000 0.50000  0.67046  0.09530  Biso   1.000  B 
  B323     1.0000 0.50000  0.65360  0.15360  Biso   1.000  B 
  B324     1.0000 0.50000  0.59529  0.17046  Biso   1.000  B 
  B325     1.0000 0.50000  0.34640  0.84640  Biso   1.000  B 
  B326     1.0000 0.50000  0.40471  0.82954  Biso   1.000  B 
  B327     1.0000 0.50000  0.32954  0.90471  Biso   1.000  B 
  B328     1.0000 0.50000  0.29500  0.79500  Biso   1.000  B 
  B329     1.0000 0.50000  0.23249  0.81563  Biso   1.000  B 
  F93      1.0000 0.50000  0.21530  0.88217  Biso   1.000  F 
  F94      1.0000 0.50001  0.11554  0.78401  Biso   1.000  F 
  B330     1.0000 0.50000  0.18442  0.76752  Biso   1.000  B 
  B331     1.0000 0.50000  0.20500  0.70501  Biso   1.000  B 
  B332     1.0000 0.50000  0.26751  0.68442  Biso   1.000  B 
  B333     1.0000 0.50000  0.31563  0.73249  Biso   1.000  B 
  F95      1.0000 0.50000  0.38216  0.71530  Biso   1.000  F 
  F96      1.0000 0.50000  0.28401  0.61557  Biso   1.000  F 
  B334     1.0000 0.50000  0.17046  0.59530  Biso   1.000  B 
  B335     1.0000 0.50000  0.15360  0.65361  Biso   1.000  B 
  B336     1.0000 0.50000  0.09529  0.67047  Biso   1.000  B 
