data_image0
_cell_length_a       20.7004
_cell_length_b       20.7004
_cell_length_c       20.7004
_cell_angle_alpha    90
_cell_angle_beta     90
_cell_angle_gamma    90

_symmetry_space_group_name_H-M    "P 1"
_symmetry_int_tables_number       1

loop_
  _symmetry_equiv_pos_as_xyz
  'x, y, z'

loop_
  _atom_site_label
  _atom_site_occupancy
  _atom_site_fract_x
  _atom_site_fract_y
  _atom_site_fract_z
  _atom_site_thermal_displace_type
  _atom_site_B_iso_or_equiv
  _atom_site_type_symbol
  B1       1.0000 0.11989  0.00000  0.00000  Biso   1.000  B 
  B2       1.0000 0.11989  0.50000  0.50000  Biso   1.000  B 
  B3       1.0000 0.61989  0.00000  0.50000  Biso   1.000  B 
  B4       1.0000 0.61989  0.50000  0.00000  Biso   1.000  B 
  B5       1.0000 0.88011  0.00000  0.00000  Biso   1.000  B 
  B6       1.0000 0.88011  0.50000  0.50000  Biso   1.000  B 
  B7       1.0000 0.38011  0.00000  0.50000  Biso   1.000  B 
  B8       1.0000 0.38011  0.50000  0.00000  Biso   1.000  B 
  B9       1.0000 0.00000  0.11989  0.00000  Biso   1.000  B 
  B10      1.0000 0.00000  0.61989  0.50000  Biso   1.000  B 
  B11      1.0000 0.50000  0.11989  0.50000  Biso   1.000  B 
  B12      1.0000 0.50000  0.61989  0.00000  Biso   1.000  B 
  B13      1.0000 0.00000  0.88011  0.00000  Biso   1.000  B 
  B14      1.0000 0.00000  0.38011  0.50000  Biso   1.000  B 
  B15      1.0000 0.50000  0.88011  0.50000  Biso   1.000  B 
  B16      1.0000 0.50000  0.38011  0.00000  Biso   1.000  B 
  B17      1.0000 0.00000  0.00000  0.11989  Biso   1.000  B 
  B18      1.0000 0.00000  0.50000  0.61989  Biso   1.000  B 
  B19      1.0000 0.50000  0.00000  0.61989  Biso   1.000  B 
  B20      1.0000 0.50000  0.50000  0.11989  Biso   1.000  B 
  B21      1.0000 0.00000  0.00000  0.88011  Biso   1.000  B 
  B22      1.0000 0.00000  0.50000  0.38011  Biso   1.000  B 
  B23      1.0000 0.50000  0.00000  0.38011  Biso   1.000  B 
  B24      1.0000 0.50000  0.50000  0.88011  Biso   1.000  B 
  B25      1.0000 0.05610  0.44390  0.44390  Biso   1.000  B 
  B26      1.0000 0.55610  0.94390  0.44390  Biso   1.000  B 
  B27      1.0000 0.55610  0.44390  0.94390  Biso   1.000  B 
  B28      1.0000 0.44390  0.05610  0.44390  Biso   1.000  B 
  B29      1.0000 0.44390  0.55610  0.94390  Biso   1.000  B 
  B30      1.0000 0.94390  0.94390  0.05610  Biso   1.000  B 
  B31      1.0000 0.94390  0.44390  0.55610  Biso   1.000  B 
  B32      1.0000 0.05610  0.05610  0.05610  Biso   1.000  B 
  B33      1.0000 0.55610  0.55610  0.05610  Biso   1.000  B 
  B34      1.0000 0.94390  0.05610  0.05610  Biso   1.000  B 
  B35      1.0000 0.94390  0.55610  0.55610  Biso   1.000  B 
  B36      1.0000 0.44390  0.05610  0.55610  Biso   1.000  B 
  B37      1.0000 0.44390  0.55610  0.05610  Biso   1.000  B 
  B38      1.0000 0.05610  0.94390  0.05610  Biso   1.000  B 
  B39      1.0000 0.05610  0.44390  0.55610  Biso   1.000  B 
  B40      1.0000 0.55610  0.94390  0.55610  Biso   1.000  B 
  B41      1.0000 0.55610  0.44390  0.05610  Biso   1.000  B 
  B42      1.0000 0.94390  0.94390  0.94390  Biso   1.000  B 
  B43      1.0000 0.94390  0.44390  0.44390  Biso   1.000  B 
  B44      1.0000 0.44390  0.94390  0.44390  Biso   1.000  B 
  B45      1.0000 0.44390  0.44390  0.94390  Biso   1.000  B 
  B46      1.0000 0.05610  0.05610  0.94390  Biso   1.000  B 
  B47      1.0000 0.05610  0.55610  0.44390  Biso   1.000  B 
  B48      1.0000 0.55610  0.05610  0.44390  Biso   1.000  B 
  B49      1.0000 0.15360  0.00000  0.84640  Biso   1.000  B 
  B50      1.0000 0.17046  0.00000  0.90471  Biso   1.000  B 
  B51      1.0000 0.09529  0.00000  0.82954  Biso   1.000  B 
  B52      1.0000 0.20500  0.00000  0.79500  Biso   1.000  B 
  B53      1.0000 0.18437  0.00000  0.73249  Biso   1.000  B 
  N1       1.0000 0.11454  0.00841  0.71449  Biso   1.000  N 
  B54      1.0000 0.22128  0.00000  0.63051  Biso   1.000  B 
  B55      1.0000 0.23249  0.00000  0.68442  Biso   1.000  B 
  B56      1.0000 0.29500  0.00000  0.70500  Biso   1.000  B 
  B57      1.0000 0.31558  0.00000  0.76751  Biso   1.000  B 
  B58      1.0000 0.26751  0.00000  0.81563  Biso   1.000  B 
  B59      1.0000 0.27872  0.00000  0.86954  Biso   1.000  B 
  B60      1.0000 0.36949  0.00000  0.77872  Biso   1.000  B 
  B61      1.0000 0.40470  0.00000  0.67046  Biso   1.000  B 
  B62      1.0000 0.34640  0.00000  0.65360  Biso   1.000  B 
  B63      1.0000 0.32954  0.00000  0.59529  Biso   1.000  B 
  N2       1.0000 0.10225  0.00724  0.65681  Biso   1.000  N 
  N3       1.0000 0.08871  0.00541  0.60094  Biso   1.000  N 
  B64      1.0000 0.15360  0.50000  0.34640  Biso   1.000  B 
  B65      1.0000 0.17046  0.50000  0.40471  Biso   1.000  B 
  B66      1.0000 0.09529  0.50000  0.32954  Biso   1.000  B 
  B67      1.0000 0.20500  0.50000  0.29500  Biso   1.000  B 
  B68      1.0000 0.18437  0.50000  0.23249  Biso   1.000  B 
  N4       1.0000 0.11453  0.50846  0.21450  Biso   1.000  N 
  B69      1.0000 0.22128  0.50000  0.13051  Biso   1.000  B 
  B70      1.0000 0.23249  0.50000  0.18442  Biso   1.000  B 
  B71      1.0000 0.29500  0.50000  0.20500  Biso   1.000  B 
  B72      1.0000 0.31558  0.50000  0.26751  Biso   1.000  B 
  B73      1.0000 0.26751  0.50000  0.31563  Biso   1.000  B 
  B74      1.0000 0.27872  0.50000  0.36954  Biso   1.000  B 
  B75      1.0000 0.36949  0.50000  0.27872  Biso   1.000  B 
  B76      1.0000 0.40470  0.50000  0.17046  Biso   1.000  B 
  B77      1.0000 0.34640  0.50000  0.15360  Biso   1.000  B 
  B78      1.0000 0.32954  0.50000  0.09529  Biso   1.000  B 
  N5       1.0000 0.10218  0.50713  0.15683  Biso   1.000  N 
  N6       1.0000 0.08860  0.50514  0.10097  Biso   1.000  N 
  B79      1.0000 0.65360  0.00000  0.34640  Biso   1.000  B 
  B80      1.0000 0.67046  0.00000  0.40471  Biso   1.000  B 
  B81      1.0000 0.59529  0.00000  0.32954  Biso   1.000  B 
  B82      1.0000 0.70500  0.00000  0.29500  Biso   1.000  B 
  B83      1.0000 0.68437  0.00000  0.23249  Biso   1.000  B 
  N7       1.0000 0.61455  0.00864  0.21452  Biso   1.000  N 
  B84      1.0000 0.72128  0.00000  0.13051  Biso   1.000  B 
  B85      1.0000 0.73248  0.00000  0.18442  Biso   1.000  B 
  B86      1.0000 0.79499  0.00000  0.20500  Biso   1.000  B 
  B87      1.0000 0.81558  0.00000  0.26751  Biso   1.000  B 
  B88      1.0000 0.76751  0.00000  0.31563  Biso   1.000  B 
  B89      1.0000 0.77872  0.00000  0.36954  Biso   1.000  B 
  B90      1.0000 0.86949  0.00000  0.27872  Biso   1.000  B 
  B91      1.0000 0.90470  0.00000  0.17046  Biso   1.000  B 
  B92      1.0000 0.84639  0.00000  0.15360  Biso   1.000  B 
  B93      1.0000 0.82953  0.00000  0.09529  Biso   1.000  B 
  N8       1.0000 0.60222  0.00733  0.15686  Biso   1.000  N 
  N9       1.0000 0.58867  0.00535  0.10100  Biso   1.000  N 
  B94      1.0000 0.65360  0.50000  0.84640  Biso   1.000  B 
  B95      1.0000 0.67046  0.50000  0.90471  Biso   1.000  B 
  B96      1.0000 0.59529  0.50000  0.82954  Biso   1.000  B 
  B97      1.0000 0.70500  0.50000  0.79500  Biso   1.000  B 
  B98      1.0000 0.68437  0.50000  0.73249  Biso   1.000  B 
  N10      1.0000 0.61455  0.50860  0.71453  Biso   1.000  N 
  B99      1.0000 0.72128  0.50000  0.63051  Biso   1.000  B 
  B100     1.0000 0.73248  0.50000  0.68442  Biso   1.000  B 
  B101     1.0000 0.79499  0.50000  0.70500  Biso   1.000  B 
  B102     1.0000 0.81558  0.50000  0.76751  Biso   1.000  B 
  B103     1.0000 0.76751  0.50000  0.81563  Biso   1.000  B 
  B104     1.0000 0.77872  0.50000  0.86954  Biso   1.000  B 
  B105     1.0000 0.86949  0.50000  0.77872  Biso   1.000  B 
  B106     1.0000 0.90470  0.50000  0.67046  Biso   1.000  B 
  B107     1.0000 0.84639  0.50000  0.65360  Biso   1.000  B 
  B108     1.0000 0.82953  0.50000  0.59529  Biso   1.000  B 
  N11      1.0000 0.60225  0.50744  0.65686  Biso   1.000  N 
  N12      1.0000 0.58874  0.50559  0.60099  Biso   1.000  N 
  B109     1.0000 0.84640  0.00000  0.84640  Biso   1.000  B 
  B110     1.0000 0.82954  0.00000  0.90471  Biso   1.000  B 
  B111     1.0000 0.90471  0.00000  0.82954  Biso   1.000  B 
  B112     1.0000 0.79500  0.00000  0.79500  Biso   1.000  B 
  B113     1.0000 0.81563  0.00000  0.73249  Biso   1.000  B 
  N13      1.0000 0.88569  0.99784  0.71278  Biso   1.000  N 
  B114     1.0000 0.77872  0.00000  0.63051  Biso   1.000  B 
  B115     1.0000 0.76752  0.00000  0.68442  Biso   1.000  B 
  B116     1.0000 0.70501  0.00000  0.70500  Biso   1.000  B 
  B117     1.0000 0.68442  0.00000  0.76751  Biso   1.000  B 
  B118     1.0000 0.73249  0.00000  0.81563  Biso   1.000  B 
  B119     1.0000 0.72128  0.00000  0.86954  Biso   1.000  B 
  B120     1.0000 0.63051  0.00000  0.77872  Biso   1.000  B 
  B121     1.0000 0.59530  0.00000  0.67046  Biso   1.000  B 
  B122     1.0000 0.65361  0.00000  0.65360  Biso   1.000  B 
  B123     1.0000 0.67047  0.00000  0.59529  Biso   1.000  B 
  N14      1.0000 0.89821  0.96500  0.66491  Biso   1.000  N 
  N15      1.0000 0.91261  0.93306  0.61893  Biso   1.000  N 
  B124     1.0000 0.84640  0.50000  0.34640  Biso   1.000  B 
  B125     1.0000 0.82954  0.50000  0.40471  Biso   1.000  B 
  B126     1.0000 0.90471  0.50000  0.32954  Biso   1.000  B 
  B127     1.0000 0.79500  0.50000  0.29500  Biso   1.000  B 
  B128     1.0000 0.81563  0.50000  0.23249  Biso   1.000  B 
  N16      1.0000 0.88572  0.49794  0.21282  Biso   1.000  N 
  B129     1.0000 0.77872  0.50000  0.13051  Biso   1.000  B 
  B130     1.0000 0.76752  0.50000  0.18442  Biso   1.000  B 
  B131     1.0000 0.70501  0.50000  0.20500  Biso   1.000  B 
  B132     1.0000 0.68442  0.50000  0.26751  Biso   1.000  B 
  B133     1.0000 0.73249  0.50000  0.31563  Biso   1.000  B 
  B134     1.0000 0.72128  0.50000  0.36954  Biso   1.000  B 
  B135     1.0000 0.63051  0.50000  0.27872  Biso   1.000  B 
  B136     1.0000 0.59530  0.50000  0.17046  Biso   1.000  B 
  B137     1.0000 0.65361  0.50000  0.15360  Biso   1.000  B 
  B138     1.0000 0.67047  0.50000  0.09529  Biso   1.000  B 
  N17      1.0000 0.89835  0.46512  0.16497  Biso   1.000  N 
  N18      1.0000 0.91286  0.43322  0.11900  Biso   1.000  N 
  B139     1.0000 0.34640  0.00000  0.34640  Biso   1.000  B 
  B140     1.0000 0.32954  0.00000  0.40471  Biso   1.000  B 
  B141     1.0000 0.40471  0.00000  0.32954  Biso   1.000  B 
  B142     1.0000 0.29500  0.00000  0.29500  Biso   1.000  B 
  B143     1.0000 0.31563  0.00000  0.23249  Biso   1.000  B 
  N19      1.0000 0.38577  0.99822  0.21288  Biso   1.000  N 
  B144     1.0000 0.27872  0.00000  0.13051  Biso   1.000  B 
  B145     1.0000 0.26751  0.00000  0.18442  Biso   1.000  B 
  B146     1.0000 0.20500  0.00000  0.20500  Biso   1.000  B 
  B147     1.0000 0.18442  0.00000  0.26751  Biso   1.000  B 
  B148     1.0000 0.23249  0.00000  0.31563  Biso   1.000  B 
  B149     1.0000 0.22128  0.00000  0.36954  Biso   1.000  B 
  B150     1.0000 0.13051  0.00000  0.27872  Biso   1.000  B 
  B151     1.0000 0.09530  0.00000  0.17046  Biso   1.000  B 
  B152     1.0000 0.15360  0.00000  0.15360  Biso   1.000  B 
  B153     1.0000 0.17046  0.00000  0.09529  Biso   1.000  B 
  N20      1.0000 0.39864  0.96572  0.16489  Biso   1.000  N 
  N21      1.0000 0.41337  0.93414  0.11876  Biso   1.000  N 
  B154     1.0000 0.34640  0.50000  0.84640  Biso   1.000  B 
  B155     1.0000 0.32954  0.50000  0.90471  Biso   1.000  B 
  B156     1.0000 0.40471  0.50000  0.82954  Biso   1.000  B 
  B157     1.0000 0.29500  0.50000  0.79500  Biso   1.000  B 
  B158     1.0000 0.31563  0.50000  0.73249  Biso   1.000  B 
  N22      1.0000 0.38574  0.49807  0.71285  Biso   1.000  N 
  B159     1.0000 0.27872  0.50000  0.63051  Biso   1.000  B 
  B160     1.0000 0.26751  0.50000  0.68442  Biso   1.000  B 
  B161     1.0000 0.20500  0.50000  0.70500  Biso   1.000  B 
  B162     1.0000 0.18442  0.50000  0.76751  Biso   1.000  B 
  B163     1.0000 0.23249  0.50000  0.81563  Biso   1.000  B 
  B164     1.0000 0.22128  0.50000  0.86954  Biso   1.000  B 
  B165     1.0000 0.13051  0.50000  0.77872  Biso   1.000  B 
  B166     1.0000 0.09530  0.50000  0.67046  Biso   1.000  B 
  B167     1.0000 0.15360  0.50000  0.65360  Biso   1.000  B 
  B168     1.0000 0.17046  0.50000  0.59529  Biso   1.000  B 
  N23      1.0000 0.39848  0.46539  0.66494  Biso   1.000  N 
  N24      1.0000 0.41308  0.43363  0.61890  Biso   1.000  N 
  B169     1.0000 0.84640  0.15360  0.00000  Biso   1.000  B 
  B170     1.0000 0.90471  0.17046  0.00000  Biso   1.000  B 
  B171     1.0000 0.82954  0.09529  0.00000  Biso   1.000  B 
  B172     1.0000 0.79500  0.20500  0.00000  Biso   1.000  B 
  B173     1.0000 0.73249  0.18437  0.00000  Biso   1.000  B 
  N25      1.0000 0.71450  0.11455  0.00861  Biso   1.000  N 
  B174     1.0000 0.63051  0.22128  0.00000  Biso   1.000  B 
  B175     1.0000 0.68442  0.23249  0.00000  Biso   1.000  B 
  B176     1.0000 0.70500  0.29500  0.00000  Biso   1.000  B 
  B177     1.0000 0.76751  0.31558  0.00000  Biso   1.000  B 
  B178     1.0000 0.81563  0.26751  0.00000  Biso   1.000  B 
  B179     1.0000 0.86954  0.27872  0.00000  Biso   1.000  B 
  B180     1.0000 0.77872  0.36949  0.00000  Biso   1.000  B 
  B181     1.0000 0.67046  0.40470  0.00000  Biso   1.000  B 
  B182     1.0000 0.65360  0.34640  0.00000  Biso   1.000  B 
  B183     1.0000 0.59529  0.32954  0.00000  Biso   1.000  B 
  N26      1.0000 0.65683  0.10224  0.00732  Biso   1.000  N 
  N27      1.0000 0.60096  0.08869  0.00534  Biso   1.000  N 
  B184     1.0000 0.84640  0.65360  0.50000  Biso   1.000  B 
  B185     1.0000 0.90471  0.67046  0.50000  Biso   1.000  B 
  B186     1.0000 0.82954  0.59529  0.50000  Biso   1.000  B 
  B187     1.0000 0.79500  0.70500  0.50000  Biso   1.000  B 
  B188     1.0000 0.73249  0.68437  0.50000  Biso   1.000  B 
  N28      1.0000 0.71450  0.61455  0.50859  Biso   1.000  N 
  B189     1.0000 0.63051  0.72128  0.50000  Biso   1.000  B 
  B190     1.0000 0.68442  0.73248  0.50000  Biso   1.000  B 
  B191     1.0000 0.70500  0.79499  0.50000  Biso   1.000  B 
  B192     1.0000 0.76751  0.81558  0.50000  Biso   1.000  B 
  B193     1.0000 0.81563  0.76751  0.50000  Biso   1.000  B 
  B194     1.0000 0.86954  0.77872  0.50000  Biso   1.000  B 
  B195     1.0000 0.77872  0.86949  0.50000  Biso   1.000  B 
  B196     1.0000 0.67046  0.90470  0.50000  Biso   1.000  B 
  B197     1.0000 0.65360  0.84639  0.50000  Biso   1.000  B 
  B198     1.0000 0.59529  0.82953  0.50000  Biso   1.000  B 
  N29      1.0000 0.65683  0.60223  0.50730  Biso   1.000  N 
  N30      1.0000 0.60095  0.58871  0.50532  Biso   1.000  N 
  B199     1.0000 0.34640  0.15360  0.50000  Biso   1.000  B 
  B200     1.0000 0.40471  0.17046  0.50000  Biso   1.000  B 
  B201     1.0000 0.32954  0.09529  0.50000  Biso   1.000  B 
  B202     1.0000 0.29500  0.20500  0.50000  Biso   1.000  B 
  B203     1.0000 0.23249  0.18437  0.50000  Biso   1.000  B 
  N31      1.0000 0.21453  0.11456  0.50863  Biso   1.000  N 
  B204     1.0000 0.13051  0.22128  0.50000  Biso   1.000  B 
  B205     1.0000 0.18442  0.23249  0.50000  Biso   1.000  B 
  B206     1.0000 0.20500  0.29500  0.50000  Biso   1.000  B 
  B207     1.0000 0.26751  0.31558  0.50000  Biso   1.000  B 
  B208     1.0000 0.31563  0.26751  0.50000  Biso   1.000  B 
  B209     1.0000 0.36954  0.27872  0.50000  Biso   1.000  B 
  B210     1.0000 0.27872  0.36949  0.50000  Biso   1.000  B 
  B211     1.0000 0.17046  0.40470  0.50000  Biso   1.000  B 
  B212     1.0000 0.15360  0.34640  0.50000  Biso   1.000  B 
  B213     1.0000 0.09529  0.32954  0.50000  Biso   1.000  B 
  N32      1.0000 0.15686  0.10229  0.50759  Biso   1.000  N 
  N33      1.0000 0.10097  0.08883  0.50586  Biso   1.000  N 
  B214     1.0000 0.34640  0.65360  0.00000  Biso   1.000  B 
  B215     1.0000 0.40471  0.67046  0.00000  Biso   1.000  B 
  B216     1.0000 0.32954  0.59529  0.00000  Biso   1.000  B 
  B217     1.0000 0.29500  0.70500  0.00000  Biso   1.000  B 
  B218     1.0000 0.23249  0.68437  0.00000  Biso   1.000  B 
  N34      1.0000 0.21449  0.61453  0.00842  Biso   1.000  N 
  B219     1.0000 0.13051  0.72128  0.00000  Biso   1.000  B 
  B220     1.0000 0.18442  0.73248  0.00000  Biso   1.000  B 
  B221     1.0000 0.20500  0.79499  0.00000  Biso   1.000  B 
  B222     1.0000 0.26751  0.81558  0.00000  Biso   1.000  B 
  B223     1.0000 0.31563  0.76751  0.00000  Biso   1.000  B 
  B224     1.0000 0.36954  0.77872  0.00000  Biso   1.000  B 
  B225     1.0000 0.27872  0.86949  0.00000  Biso   1.000  B 
  B226     1.0000 0.17046  0.90470  0.00000  Biso   1.000  B 
  B227     1.0000 0.15360  0.84639  0.00000  Biso   1.000  B 
  B228     1.0000 0.09529  0.82953  0.00000  Biso   1.000  B 
  N35      1.0000 0.15682  0.60219  0.00711  Biso   1.000  N 
  N36      1.0000 0.10095  0.58862  0.00516  Biso   1.000  N 
  B229     1.0000 0.84640  0.84640  0.00000  Biso   1.000  B 
  B230     1.0000 0.90471  0.82954  0.00000  Biso   1.000  B 
  B231     1.0000 0.82954  0.90471  0.00000  Biso   1.000  B 
  B232     1.0000 0.79500  0.79500  0.00000  Biso   1.000  B 
  B233     1.0000 0.73249  0.81563  0.00000  Biso   1.000  B 
  N37      1.0000 0.71285  0.88576  0.99816  Biso   1.000  N 
  B234     1.0000 0.63051  0.77872  0.00000  Biso   1.000  B 
  B235     1.0000 0.68442  0.76752  0.00000  Biso   1.000  B 
  B236     1.0000 0.70500  0.70501  0.00000  Biso   1.000  B 
  B237     1.0000 0.76751  0.68442  0.00000  Biso   1.000  B 
  B238     1.0000 0.81563  0.73249  0.00000  Biso   1.000  B 
  B239     1.0000 0.86954  0.72128  0.00000  Biso   1.000  B 
  B240     1.0000 0.77872  0.63051  0.00000  Biso   1.000  B 
  B241     1.0000 0.67046  0.59530  0.00000  Biso   1.000  B 
  B242     1.0000 0.65360  0.65361  0.00000  Biso   1.000  B 
  B243     1.0000 0.59529  0.67047  0.00000  Biso   1.000  B 
  N38      1.0000 0.66482  0.89856  0.96568  Biso   1.000  N 
  N39      1.0000 0.61866  0.91322  0.93413  Biso   1.000  N 
  B244     1.0000 0.84640  0.34640  0.50000  Biso   1.000  B 
  B245     1.0000 0.90471  0.32954  0.50000  Biso   1.000  B 
  B246     1.0000 0.82954  0.40471  0.50000  Biso   1.000  B 
  B247     1.0000 0.79500  0.29500  0.50000  Biso   1.000  B 
  B248     1.0000 0.73249  0.31563  0.50000  Biso   1.000  B 
  N40      1.0000 0.71287  0.38576  0.49817  Biso   1.000  N 
  B249     1.0000 0.63051  0.27872  0.50000  Biso   1.000  B 
  B250     1.0000 0.68442  0.26751  0.50000  Biso   1.000  B 
  B251     1.0000 0.70500  0.20500  0.50000  Biso   1.000  B 
  B252     1.0000 0.76751  0.18442  0.50000  Biso   1.000  B 
  B253     1.0000 0.81563  0.23249  0.50000  Biso   1.000  B 
  B254     1.0000 0.86954  0.22128  0.50000  Biso   1.000  B 
  B255     1.0000 0.77872  0.13051  0.50000  Biso   1.000  B 
  B256     1.0000 0.67046  0.09530  0.50000  Biso   1.000  B 
  B257     1.0000 0.65360  0.15360  0.50000  Biso   1.000  B 
  B258     1.0000 0.59529  0.17046  0.50000  Biso   1.000  B 
  N41      1.0000 0.66488  0.39860  0.46566  Biso   1.000  N 
  N42      1.0000 0.61874  0.41327  0.43407  Biso   1.000  N 
  B259     1.0000 0.34640  0.84640  0.50000  Biso   1.000  B 
  B260     1.0000 0.40471  0.82954  0.50000  Biso   1.000  B 
  B261     1.0000 0.32954  0.90471  0.50000  Biso   1.000  B 
  B262     1.0000 0.29500  0.79500  0.50000  Biso   1.000  B 
  B263     1.0000 0.23249  0.81563  0.50000  Biso   1.000  B 
  N43      1.0000 0.21284  0.88573  0.49798  Biso   1.000  N 
  B264     1.0000 0.13051  0.77872  0.50000  Biso   1.000  B 
  B265     1.0000 0.18442  0.76752  0.50000  Biso   1.000  B 
  B266     1.0000 0.20500  0.70501  0.50000  Biso   1.000  B 
  B267     1.0000 0.26751  0.68442  0.50000  Biso   1.000  B 
  B268     1.0000 0.31563  0.73249  0.50000  Biso   1.000  B 
  B269     1.0000 0.36954  0.72128  0.50000  Biso   1.000  B 
  B270     1.0000 0.27872  0.63051  0.50000  Biso   1.000  B 
  B271     1.0000 0.17046  0.59530  0.50000  Biso   1.000  B 
  B272     1.0000 0.15360  0.65361  0.50000  Biso   1.000  B 
  B273     1.0000 0.09529  0.67047  0.50000  Biso   1.000  B 
  N44      1.0000 0.16505  0.89841  0.46511  Biso   1.000  N 
  N45      1.0000 0.11912  0.91295  0.43316  Biso   1.000  N 
  B274     1.0000 0.34640  0.34640  0.00000  Biso   1.000  B 
  B275     1.0000 0.40471  0.32954  0.00000  Biso   1.000  B 
  B276     1.0000 0.32954  0.40471  0.00000  Biso   1.000  B 
  B277     1.0000 0.29500  0.29500  0.00000  Biso   1.000  B 
  B278     1.0000 0.23249  0.31563  0.00000  Biso   1.000  B 
  N46      1.0000 0.21282  0.38572  0.99796  Biso   1.000  N 
  B279     1.0000 0.13051  0.27872  0.00000  Biso   1.000  B 
  B280     1.0000 0.18442  0.26751  0.00000  Biso   1.000  B 
  B281     1.0000 0.20500  0.20500  0.00000  Biso   1.000  B 
  B282     1.0000 0.26751  0.18442  0.00000  Biso   1.000  B 
  B283     1.0000 0.31563  0.23249  0.00000  Biso   1.000  B 
  B284     1.0000 0.36954  0.22128  0.00000  Biso   1.000  B 
  B285     1.0000 0.27872  0.13051  0.00000  Biso   1.000  B 
  B286     1.0000 0.17046  0.09530  0.00000  Biso   1.000  B 
  B287     1.0000 0.15360  0.15360  0.00000  Biso   1.000  B 
  B288     1.0000 0.09529  0.17046  0.00000  Biso   1.000  B 
  N47      1.0000 0.16495  0.39837  0.96517  Biso   1.000  N 
  N48      1.0000 0.11896  0.41288  0.93331  Biso   1.000  N 
  B289     1.0000 0.00000  0.84640  0.15360  Biso   1.000  B 
  B290     1.0000 0.00000  0.90471  0.17046  Biso   1.000  B 
  B291     1.0000 0.00000  0.82954  0.09529  Biso   1.000  B 
  B292     1.0000 0.00000  0.79500  0.20500  Biso   1.000  B 
  B293     1.0000 0.00000  0.73249  0.18437  Biso   1.000  B 
  N49      1.0000 0.00846  0.71450  0.11453  Biso   1.000  N 
  B294     1.0000 0.00000  0.63051  0.22128  Biso   1.000  B 
  B295     1.0000 0.00000  0.68442  0.23249  Biso   1.000  B 
  B296     1.0000 0.00000  0.70500  0.29500  Biso   1.000  B 
  B297     1.0000 0.00000  0.76751  0.31558  Biso   1.000  B 
  B298     1.0000 0.00000  0.81563  0.26751  Biso   1.000  B 
  B299     1.0000 0.00000  0.86954  0.27872  Biso   1.000  B 
  B300     1.0000 0.00000  0.77872  0.36949  Biso   1.000  B 
  B301     1.0000 0.00000  0.67046  0.40470  Biso   1.000  B 
  B302     1.0000 0.00000  0.65360  0.34640  Biso   1.000  B 
  B303     1.0000 0.00000  0.59529  0.32954  Biso   1.000  B 
  N50      1.0000 0.00712  0.65683  0.10219  Biso   1.000  N 
  N51      1.0000 0.00513  0.60097  0.08860  Biso   1.000  N 
  B304     1.0000 0.00000  0.34640  0.65360  Biso   1.000  B 
  B305     1.0000 0.00000  0.40471  0.67046  Biso   1.000  B 
  B306     1.0000 0.00000  0.32954  0.59529  Biso   1.000  B 
  B307     1.0000 0.00000  0.29500  0.70500  Biso   1.000  B 
  B308     1.0000 0.00000  0.23249  0.68437  Biso   1.000  B 
  N52      1.0000 0.00845  0.21448  0.61452  Biso   1.000  N 
  B309     1.0000 0.00000  0.13051  0.72128  Biso   1.000  B 
  B310     1.0000 0.00000  0.18442  0.73248  Biso   1.000  B 
  B311     1.0000 0.00000  0.20500  0.79499  Biso   1.000  B 
  B312     1.0000 0.00000  0.26751  0.81558  Biso   1.000  B 
  B313     1.0000 0.00000  0.31563  0.76751  Biso   1.000  B 
  B314     1.0000 0.00000  0.36954  0.77872  Biso   1.000  B 
  B315     1.0000 0.00000  0.27872  0.86949  Biso   1.000  B 
  B316     1.0000 0.00000  0.17046  0.90470  Biso   1.000  B 
  B317     1.0000 0.00000  0.15360  0.84639  Biso   1.000  B 
  B318     1.0000 0.00000  0.09529  0.82953  Biso   1.000  B 
  N53      1.0000 0.00679  0.15682  0.60212  Biso   1.000  N 
  N54      1.0000 0.00450  0.10097  0.58847  Biso   1.000  N 
  B319     1.0000 0.50000  0.84640  0.65360  Biso   1.000  B 
  B320     1.0000 0.50000  0.90471  0.67046  Biso   1.000  B 
  B321     1.0000 0.50000  0.82954  0.59529  Biso   1.000  B 
  B322     1.0000 0.50000  0.79500  0.70500  Biso   1.000  B 
  B323     1.0000 0.50000  0.73249  0.68437  Biso   1.000  B 
  N55      1.0000 0.50853  0.71450  0.61455  Biso   1.000  N 
  B324     1.0000 0.50000  0.63051  0.72128  Biso   1.000  B 
  B325     1.0000 0.50000  0.68442  0.73248  Biso   1.000  B 
  B326     1.0000 0.50000  0.70500  0.79499  Biso   1.000  B 
  B327     1.0000 0.50000  0.76751  0.81558  Biso   1.000  B 
  B328     1.0000 0.50000  0.81563  0.76751  Biso   1.000  B 
  B329     1.0000 0.50000  0.86954  0.77872  Biso   1.000  B 
  B330     1.0000 0.50000  0.77872  0.86949  Biso   1.000  B 
  B331     1.0000 0.50000  0.67046  0.90470  Biso   1.000  B 
  B332     1.0000 0.50000  0.65360  0.84639  Biso   1.000  B 
  B333     1.0000 0.50000  0.59529  0.82953  Biso   1.000  B 
  N56      1.0000 0.50728  0.65683  0.60225  Biso   1.000  N 
  N57      1.0000 0.50535  0.60095  0.58872  Biso   1.000  N 
  B334     1.0000 0.50000  0.34640  0.15360  Biso   1.000  B 
  B335     1.0000 0.50000  0.40471  0.17046  Biso   1.000  B 
  B336     1.0000 0.50000  0.32954  0.09529  Biso   1.000  B 
  B337     1.0000 0.50000  0.29500  0.20500  Biso   1.000  B 
  B338     1.0000 0.50000  0.23249  0.18437  Biso   1.000  B 
  N58      1.0000 0.50865  0.21452  0.11456  Biso   1.000  N 
  B339     1.0000 0.50000  0.13051  0.22128  Biso   1.000  B 
  B340     1.0000 0.50000  0.18442  0.23249  Biso   1.000  B 
  B341     1.0000 0.50000  0.20500  0.29500  Biso   1.000  B 
  B342     1.0000 0.50000  0.26751  0.31558  Biso   1.000  B 
  B343     1.0000 0.50000  0.31563  0.26751  Biso   1.000  B 
  B344     1.0000 0.50000  0.36954  0.27872  Biso   1.000  B 
  B345     1.0000 0.50000  0.27872  0.36949  Biso   1.000  B 
  B346     1.0000 0.50000  0.17046  0.40470  Biso   1.000  B 
  B347     1.0000 0.50000  0.15360  0.34640  Biso   1.000  B 
  B348     1.0000 0.50000  0.09529  0.32954  Biso   1.000  B 
  N59      1.0000 0.50753  0.15685  0.10229  Biso   1.000  N 
  N60      1.0000 0.50572  0.10097  0.08881  Biso   1.000  N 
  B349     1.0000 0.00000  0.84640  0.84640  Biso   1.000  B 
  B350     1.0000 0.00000  0.90471  0.82954  Biso   1.000  B 
  B351     1.0000 0.00000  0.82954  0.90471  Biso   1.000  B 
  B352     1.0000 0.00000  0.79500  0.79500  Biso   1.000  B 
  B353     1.0000 0.00000  0.73249  0.81563  Biso   1.000  B 
  N61      1.0000 0.99797  0.71282  0.88572  Biso   1.000  N 
  B354     1.0000 0.00000  0.63051  0.77872  Biso   1.000  B 
  B355     1.0000 0.00000  0.68442  0.76752  Biso   1.000  B 
  B356     1.0000 0.00000  0.70500  0.70501  Biso   1.000  B 
  B357     1.0000 0.00000  0.76751  0.68442  Biso   1.000  B 
  B358     1.0000 0.00000  0.81563  0.73249  Biso   1.000  B 
  B359     1.0000 0.00000  0.86954  0.72128  Biso   1.000  B 
  B360     1.0000 0.00000  0.77872  0.63051  Biso   1.000  B 
  B361     1.0000 0.00000  0.67046  0.59530  Biso   1.000  B 
  B362     1.0000 0.00000  0.65360  0.65361  Biso   1.000  B 
  B363     1.0000 0.00000  0.59529  0.67047  Biso   1.000  B 
  N62      1.0000 0.96519  0.66496  0.89838  Biso   1.000  N 
  N63      1.0000 0.93333  0.61896  0.91290  Biso   1.000  N 
  B364     1.0000 0.00000  0.34640  0.34640  Biso   1.000  B 
  B365     1.0000 0.00000  0.40471  0.32954  Biso   1.000  B 
  B366     1.0000 0.00000  0.32954  0.40471  Biso   1.000  B 
  B367     1.0000 0.00000  0.29500  0.29500  Biso   1.000  B 
  B368     1.0000 0.00000  0.23249  0.31563  Biso   1.000  B 
  N64      1.0000 0.99824  0.21289  0.38578  Biso   1.000  N 
  B369     1.0000 0.00000  0.13051  0.27872  Biso   1.000  B 
  B370     1.0000 0.00000  0.18442  0.26751  Biso   1.000  B 
  B371     1.0000 0.00000  0.20500  0.20500  Biso   1.000  B 
  B372     1.0000 0.00000  0.26751  0.18442  Biso   1.000  B 
  B373     1.0000 0.00000  0.31563  0.23249  Biso   1.000  B 
  B374     1.0000 0.00000  0.36954  0.22128  Biso   1.000  B 
  B375     1.0000 0.00000  0.27872  0.13051  Biso   1.000  B 
  B376     1.0000 0.00000  0.17046  0.09530  Biso   1.000  B 
  B377     1.0000 0.00000  0.15360  0.15360  Biso   1.000  B 
  B378     1.0000 0.00000  0.09529  0.17046  Biso   1.000  B 
  N65      1.0000 0.96579  0.16487  0.39868  Biso   1.000  N 
  N66      1.0000 0.93427  0.11871  0.41342  Biso   1.000  N 
  B379     1.0000 0.50000  0.84640  0.34640  Biso   1.000  B 
  B380     1.0000 0.50000  0.90471  0.32954  Biso   1.000  B 
  B381     1.0000 0.50000  0.82954  0.40471  Biso   1.000  B 
  B382     1.0000 0.50000  0.79500  0.29500  Biso   1.000  B 
  B383     1.0000 0.50000  0.73249  0.31563  Biso   1.000  B 
  N67      1.0000 0.49813  0.71285  0.38575  Biso   1.000  N 
  B384     1.0000 0.50000  0.63051  0.27872  Biso   1.000  B 
  B385     1.0000 0.50000  0.68442  0.26751  Biso   1.000  B 
  B386     1.0000 0.50000  0.70500  0.20500  Biso   1.000  B 
  B387     1.0000 0.50000  0.76751  0.18442  Biso   1.000  B 
  B388     1.0000 0.50000  0.81563  0.23249  Biso   1.000  B 
  B389     1.0000 0.50000  0.86954  0.22128  Biso   1.000  B 
  B390     1.0000 0.50000  0.77872  0.13051  Biso   1.000  B 
  B391     1.0000 0.50000  0.67046  0.09530  Biso   1.000  B 
  B392     1.0000 0.50000  0.65360  0.15360  Biso   1.000  B 
  B393     1.0000 0.50000  0.59529  0.17046  Biso   1.000  B 
  N68      1.0000 0.46559  0.66486  0.39853  Biso   1.000  N 
  N69      1.0000 0.43397  0.61873  0.41316  Biso   1.000  N 
  B394     1.0000 0.50000  0.34640  0.84640  Biso   1.000  B 
  B395     1.0000 0.50000  0.40471  0.82954  Biso   1.000  B 
  B396     1.0000 0.50000  0.32954  0.90471  Biso   1.000  B 
  B397     1.0000 0.50000  0.29500  0.79500  Biso   1.000  B 
  B398     1.0000 0.50000  0.23249  0.81563  Biso   1.000  B 
  N70      1.0000 0.49813  0.21285  0.88575  Biso   1.000  N 
  B399     1.0000 0.50000  0.13051  0.77872  Biso   1.000  B 
  B400     1.0000 0.50000  0.18442  0.76752  Biso   1.000  B 
  B401     1.0000 0.50000  0.20500  0.70501  Biso   1.000  B 
  B402     1.0000 0.50000  0.26751  0.68442  Biso   1.000  B 
  B403     1.0000 0.50000  0.31563  0.73249  Biso   1.000  B 
  B404     1.0000 0.50000  0.36954  0.72128  Biso   1.000  B 
  B405     1.0000 0.50000  0.27872  0.63051  Biso   1.000  B 
  B406     1.0000 0.50000  0.17046  0.59530  Biso   1.000  B 
  B407     1.0000 0.50000  0.15360  0.65361  Biso   1.000  B 
  B408     1.0000 0.50000  0.09529  0.67047  Biso   1.000  B 
  N71      1.0000 0.46556  0.16488  0.89853  Biso   1.000  N 
  N72      1.0000 0.43391  0.11878  0.91317  Biso   1.000  N 
