data_image0
_cell_length_a       20.7004
_cell_length_b       20.7004
_cell_length_c       20.7004
_cell_angle_alpha    90
_cell_angle_beta     90
_cell_angle_gamma    90

_symmetry_space_group_name_H-M    "P 1"
_symmetry_int_tables_number       1

loop_
  _symmetry_equiv_pos_as_xyz
  'x, y, z'

loop_
  _atom_site_label
  _atom_site_occupancy
  _atom_site_fract_x
  _atom_site_fract_y
  _atom_site_fract_z
  _atom_site_thermal_displace_type
  _atom_site_B_iso_or_equiv
  _atom_site_type_symbol
  B1       1.0000 0.11989  0.00000  0.00000  Biso   1.000  B 
  B2       1.0000 0.11989  0.50000  0.50000  Biso   1.000  B 
  B3       1.0000 0.61989  0.00000  0.50000  Biso   1.000  B 
  B4       1.0000 0.61989  0.50000  0.00000  Biso   1.000  B 
  B5       1.0000 0.88011  0.00000  0.00000  Biso   1.000  B 
  B6       1.0000 0.88011  0.50000  0.50000  Biso   1.000  B 
  B7       1.0000 0.38011  0.00000  0.50000  Biso   1.000  B 
  B8       1.0000 0.38011  0.50000  0.00000  Biso   1.000  B 
  B9       1.0000 0.00000  0.11989  0.00000  Biso   1.000  B 
  B10      1.0000 0.00000  0.61989  0.50000  Biso   1.000  B 
  B11      1.0000 0.50000  0.11989  0.50000  Biso   1.000  B 
  B12      1.0000 0.50000  0.61989  0.00000  Biso   1.000  B 
  B13      1.0000 0.00000  0.88011  0.00000  Biso   1.000  B 
  B14      1.0000 0.00000  0.38011  0.50000  Biso   1.000  B 
  B15      1.0000 0.50000  0.88011  0.50000  Biso   1.000  B 
  B16      1.0000 0.50000  0.38011  0.00000  Biso   1.000  B 
  B17      1.0000 0.00000  0.00000  0.11989  Biso   1.000  B 
  B18      1.0000 0.00000  0.50000  0.61989  Biso   1.000  B 
  B19      1.0000 0.50000  0.00000  0.61989  Biso   1.000  B 
  B20      1.0000 0.50000  0.50000  0.11989  Biso   1.000  B 
  B21      1.0000 0.00000  0.00000  0.88011  Biso   1.000  B 
  B22      1.0000 0.00000  0.50000  0.38011  Biso   1.000  B 
  B23      1.0000 0.50000  0.00000  0.38011  Biso   1.000  B 
  B24      1.0000 0.50000  0.50000  0.88011  Biso   1.000  B 
  B25      1.0000 0.05610  0.44390  0.44390  Biso   1.000  B 
  B26      1.0000 0.55610  0.94390  0.44390  Biso   1.000  B 
  B27      1.0000 0.55610  0.44390  0.94390  Biso   1.000  B 
  B28      1.0000 0.44390  0.05610  0.44390  Biso   1.000  B 
  B29      1.0000 0.44390  0.55610  0.94390  Biso   1.000  B 
  B30      1.0000 0.94390  0.94390  0.05610  Biso   1.000  B 
  B31      1.0000 0.94390  0.44390  0.55610  Biso   1.000  B 
  B32      1.0000 0.05610  0.05610  0.05610  Biso   1.000  B 
  B33      1.0000 0.55610  0.55610  0.05610  Biso   1.000  B 
  B34      1.0000 0.94390  0.05610  0.05610  Biso   1.000  B 
  B35      1.0000 0.94390  0.55610  0.55610  Biso   1.000  B 
  B36      1.0000 0.44390  0.05610  0.55610  Biso   1.000  B 
  B37      1.0000 0.44390  0.55610  0.05610  Biso   1.000  B 
  B38      1.0000 0.05610  0.94390  0.05610  Biso   1.000  B 
  B39      1.0000 0.05610  0.44390  0.55610  Biso   1.000  B 
  B40      1.0000 0.55610  0.94390  0.55610  Biso   1.000  B 
  B41      1.0000 0.55610  0.44390  0.05610  Biso   1.000  B 
  B42      1.0000 0.94390  0.94390  0.94390  Biso   1.000  B 
  B43      1.0000 0.94390  0.44390  0.44390  Biso   1.000  B 
  B44      1.0000 0.44390  0.94390  0.44390  Biso   1.000  B 
  B45      1.0000 0.44390  0.44390  0.94390  Biso   1.000  B 
  B46      1.0000 0.05610  0.05610  0.94390  Biso   1.000  B 
  B47      1.0000 0.05610  0.55610  0.44390  Biso   1.000  B 
  B48      1.0000 0.55610  0.05610  0.44390  Biso   1.000  B 
  B49      1.0000 0.15360  0.00000  0.84640  Biso   1.000  B 
  B50      1.0000 0.17046  0.00000  0.90471  Biso   1.000  B 
  B51      1.0000 0.09529  0.00000  0.82954  Biso   1.000  B 
  B52      1.0000 0.20500  0.00000  0.79500  Biso   1.000  B 
  B53      1.0000 0.18437  0.00000  0.73249  Biso   1.000  B 
  B54      1.0000 0.13046  0.00000  0.72128  Biso   1.000  B 
  N1       1.0000 0.21063  0.00156  0.61485  Biso   1.000  N 
  B55      1.0000 0.23249  0.00000  0.68442  Biso   1.000  B 
  B56      1.0000 0.29500  0.00000  0.70500  Biso   1.000  B 
  B57      1.0000 0.31558  0.00000  0.76751  Biso   1.000  B 
  B58      1.0000 0.26751  0.00000  0.81563  Biso   1.000  B 
  N2       1.0000 0.28926  0.00168  0.88524  Biso   1.000  N 
  B59      1.0000 0.36949  0.00000  0.77872  Biso   1.000  B 
  B60      1.0000 0.40470  0.00000  0.67046  Biso   1.000  B 
  B61      1.0000 0.34640  0.00000  0.65360  Biso   1.000  B 
  B62      1.0000 0.32954  0.00000  0.59529  Biso   1.000  B 
  H1       1.0000 0.17969  0.96268  0.60747  Biso   1.000  H 
  H2       1.0000 0.18812  0.04620  0.60611  Biso   1.000  H 
  H3       1.0000 0.31105  0.04664  0.89406  Biso   1.000  H 
  H4       1.0000 0.32059  0.96313  0.89275  Biso   1.000  H 
  B63      1.0000 0.15360  0.50000  0.34640  Biso   1.000  B 
  B64      1.0000 0.17046  0.50000  0.40471  Biso   1.000  B 
  B65      1.0000 0.09529  0.50000  0.32954  Biso   1.000  B 
  B66      1.0000 0.20500  0.50000  0.29500  Biso   1.000  B 
  B67      1.0000 0.18437  0.50000  0.23249  Biso   1.000  B 
  B68      1.0000 0.13046  0.50000  0.22128  Biso   1.000  B 
  N3       1.0000 0.21061  0.50178  0.11485  Biso   1.000  N 
  B69      1.0000 0.23249  0.50000  0.18442  Biso   1.000  B 
  B70      1.0000 0.29500  0.50000  0.20500  Biso   1.000  B 
  B71      1.0000 0.31558  0.50000  0.26751  Biso   1.000  B 
  B72      1.0000 0.26751  0.50000  0.31563  Biso   1.000  B 
  N4       1.0000 0.28755  0.50033  0.38415  Biso   1.000  N 
  B73      1.0000 0.36949  0.50000  0.27872  Biso   1.000  B 
  B74      1.0000 0.40470  0.50000  0.17046  Biso   1.000  B 
  B75      1.0000 0.34640  0.50000  0.15360  Biso   1.000  B 
  B76      1.0000 0.32954  0.50000  0.09529  Biso   1.000  B 
  H5       1.0000 0.17968  0.46292  0.10729  Biso   1.000  H 
  H6       1.0000 0.18811  0.54644  0.10629  Biso   1.000  H 
  H7       1.0000 0.31315  0.45716  0.38895  Biso   1.000  H 
  H8       1.0000 0.32148  0.53685  0.39460  Biso   1.000  H 
  B77      1.0000 0.65360  0.00000  0.34640  Biso   1.000  B 
  B78      1.0000 0.67046  0.00000  0.40471  Biso   1.000  B 
  B79      1.0000 0.59529  0.00000  0.32954  Biso   1.000  B 
  B80      1.0000 0.70500  0.00000  0.29500  Biso   1.000  B 
  B81      1.0000 0.68437  0.00000  0.23249  Biso   1.000  B 
  B82      1.0000 0.63046  0.00000  0.22128  Biso   1.000  B 
  N5       1.0000 0.71217  0.99599  0.11440  Biso   1.000  N 
  B83      1.0000 0.73248  0.00000  0.18442  Biso   1.000  B 
  B84      1.0000 0.79499  0.00000  0.20500  Biso   1.000  B 
  B85      1.0000 0.81558  0.00000  0.26751  Biso   1.000  B 
  B86      1.0000 0.76751  0.00000  0.31563  Biso   1.000  B 
  N6       1.0000 0.78548  0.00045  0.38528  Biso   1.000  N 
  B87      1.0000 0.86949  0.00000  0.27872  Biso   1.000  B 
  B88      1.0000 0.90470  0.00000  0.17046  Biso   1.000  B 
  B89      1.0000 0.84639  0.00000  0.15360  Biso   1.000  B 
  B90      1.0000 0.82953  0.00000  0.09529  Biso   1.000  B 
  H9       1.0000 0.69300  0.04306  0.11221  Biso   1.000  H 
  H10      1.0000 0.67473  0.96337  0.10413  Biso   1.000  H 
  H11      1.0000 0.80824  0.95662  0.39707  Biso   1.000  H 
  H12      1.0000 0.81499  0.04022  0.39792  Biso   1.000  H 
  B91      1.0000 0.65360  0.50000  0.84640  Biso   1.000  B 
  B92      1.0000 0.67046  0.50000  0.90471  Biso   1.000  B 
  B93      1.0000 0.59529  0.50000  0.82954  Biso   1.000  B 
  B94      1.0000 0.70500  0.50000  0.79500  Biso   1.000  B 
  B95      1.0000 0.68437  0.50000  0.73249  Biso   1.000  B 
  B96      1.0000 0.63046  0.50000  0.72128  Biso   1.000  B 
  N7       1.0000 0.71215  0.50296  0.61633  Biso   1.000  N 
  B97      1.0000 0.73248  0.50000  0.68442  Biso   1.000  B 
  B98      1.0000 0.79499  0.50000  0.70500  Biso   1.000  B 
  B99      1.0000 0.81558  0.50000  0.76751  Biso   1.000  B 
  B100     1.0000 0.76751  0.50000  0.81563  Biso   1.000  B 
  N8       1.0000 0.78927  0.49853  0.88525  Biso   1.000  N 
  B101     1.0000 0.86949  0.50000  0.77872  Biso   1.000  B 
  B102     1.0000 0.90470  0.50000  0.67046  Biso   1.000  B 
  B103     1.0000 0.84639  0.50000  0.65360  Biso   1.000  B 
  B104     1.0000 0.82953  0.50000  0.59529  Biso   1.000  B 
  H13      1.0000 0.67446  0.53535  0.60929  Biso   1.000  H 
  H14      1.0000 0.69801  0.45718  0.60245  Biso   1.000  H 
  H15      1.0000 0.81124  0.45366  0.89408  Biso   1.000  H 
  H16      1.0000 0.82051  0.53719  0.89270  Biso   1.000  H 
  B105     1.0000 0.84640  0.00000  0.84640  Biso   1.000  B 
  B106     1.0000 0.82954  0.00000  0.90471  Biso   1.000  B 
  B107     1.0000 0.90471  0.00000  0.82954  Biso   1.000  B 
  B108     1.0000 0.79500  0.00000  0.79500  Biso   1.000  B 
  B109     1.0000 0.81563  0.00000  0.73249  Biso   1.000  B 
  B110     1.0000 0.86954  0.00000  0.72128  Biso   1.000  B 
  N9       1.0000 0.78933  0.99832  0.61485  Biso   1.000  N 
  B111     1.0000 0.76752  0.00000  0.68442  Biso   1.000  B 
  B112     1.0000 0.70501  0.00000  0.70500  Biso   1.000  B 
  B113     1.0000 0.68442  0.00000  0.76751  Biso   1.000  B 
  B114     1.0000 0.73249  0.00000  0.81563  Biso   1.000  B 
  N10      1.0000 0.71073  0.99831  0.88523  Biso   1.000  N 
  B115     1.0000 0.63051  0.00000  0.77872  Biso   1.000  B 
  B116     1.0000 0.59530  0.00000  0.67046  Biso   1.000  B 
  B117     1.0000 0.65361  0.00000  0.65360  Biso   1.000  B 
  B118     1.0000 0.67047  0.00000  0.59529  Biso   1.000  B 
  H17      1.0000 0.82053  0.03701  0.60752  Biso   1.000  H 
  H18      1.0000 0.81145  0.95353  0.60605  Biso   1.000  H 
  H19      1.0000 0.68898  0.95331  0.89390  Biso   1.000  H 
  H20      1.0000 0.67934  0.03683  0.89282  Biso   1.000  H 
  B119     1.0000 0.84640  0.50000  0.34640  Biso   1.000  B 
  B120     1.0000 0.82954  0.50000  0.40471  Biso   1.000  B 
  B121     1.0000 0.90471  0.50000  0.32954  Biso   1.000  B 
  B122     1.0000 0.79500  0.50000  0.29500  Biso   1.000  B 
  B123     1.0000 0.81563  0.50000  0.23249  Biso   1.000  B 
  B124     1.0000 0.86954  0.50000  0.22128  Biso   1.000  B 
  N11      1.0000 0.78657  0.49739  0.11518  Biso   1.000  N 
  B125     1.0000 0.76752  0.50000  0.18442  Biso   1.000  B 
  B126     1.0000 0.70501  0.50000  0.20500  Biso   1.000  B 
  B127     1.0000 0.68442  0.50000  0.26751  Biso   1.000  B 
  B128     1.0000 0.73249  0.50000  0.31563  Biso   1.000  B 
  N12      1.0000 0.71065  0.49814  0.38521  Biso   1.000  N 
  B129     1.0000 0.63051  0.50000  0.27872  Biso   1.000  B 
  B130     1.0000 0.59530  0.50000  0.17046  Biso   1.000  B 
  B131     1.0000 0.65361  0.50000  0.15360  Biso   1.000  B 
  B132     1.0000 0.67047  0.50000  0.09529  Biso   1.000  B 
  H21      1.0000 0.81566  0.53735  0.10212  Biso   1.000  H 
  H22      1.0000 0.81371  0.45603  0.10393  Biso   1.000  H 
  H23      1.0000 0.68790  0.45359  0.39390  Biso   1.000  H 
  H24      1.0000 0.67999  0.53716  0.39300  Biso   1.000  H 
  B133     1.0000 0.34640  0.00000  0.34640  Biso   1.000  B 
  B134     1.0000 0.32954  0.00000  0.40471  Biso   1.000  B 
  B135     1.0000 0.40471  0.00000  0.32954  Biso   1.000  B 
  B136     1.0000 0.29500  0.00000  0.29500  Biso   1.000  B 
  B137     1.0000 0.31563  0.00000  0.23249  Biso   1.000  B 
  B138     1.0000 0.36954  0.00000  0.22128  Biso   1.000  B 
  N13      1.0000 0.28598  0.00069  0.11492  Biso   1.000  N 
  B139     1.0000 0.26751  0.00000  0.18442  Biso   1.000  B 
  B140     1.0000 0.20500  0.00000  0.20500  Biso   1.000  B 
  B141     1.0000 0.18442  0.00000  0.26751  Biso   1.000  B 
  B142     1.0000 0.23249  0.00000  0.31563  Biso   1.000  B 
  N14      1.0000 0.21325  0.00349  0.38390  Biso   1.000  N 
  B143     1.0000 0.13051  0.00000  0.27872  Biso   1.000  B 
  B144     1.0000 0.09530  0.00000  0.17046  Biso   1.000  B 
  B145     1.0000 0.15360  0.00000  0.15360  Biso   1.000  B 
  B146     1.0000 0.17046  0.00000  0.09529  Biso   1.000  B 
  H25      1.0000 0.31459  0.96032  0.10198  Biso   1.000  H 
  H26      1.0000 0.31049  0.04349  0.10255  Biso   1.000  H 
  H27      1.0000 0.18866  0.04620  0.39475  Biso   1.000  H 
  H28      1.0000 0.17768  0.96732  0.39053  Biso   1.000  H 
  B147     1.0000 0.34640  0.50000  0.84640  Biso   1.000  B 
  B148     1.0000 0.32954  0.50000  0.90471  Biso   1.000  B 
  B149     1.0000 0.40471  0.50000  0.82954  Biso   1.000  B 
  B150     1.0000 0.29500  0.50000  0.79500  Biso   1.000  B 
  B151     1.0000 0.31563  0.50000  0.73249  Biso   1.000  B 
  B152     1.0000 0.36954  0.50000  0.72128  Biso   1.000  B 
  N15      1.0000 0.28945  0.49848  0.61488  Biso   1.000  N 
  B153     1.0000 0.26751  0.50000  0.68442  Biso   1.000  B 
  B154     1.0000 0.20500  0.50000  0.70500  Biso   1.000  B 
  B155     1.0000 0.18442  0.50000  0.76751  Biso   1.000  B 
  B156     1.0000 0.23249  0.50000  0.81563  Biso   1.000  B 
  N16      1.0000 0.21057  0.49859  0.88400  Biso   1.000  N 
  B157     1.0000 0.13051  0.50000  0.77872  Biso   1.000  B 
  B158     1.0000 0.09530  0.50000  0.67046  Biso   1.000  B 
  B159     1.0000 0.15360  0.50000  0.65360  Biso   1.000  B 
  B160     1.0000 0.17046  0.50000  0.59529  Biso   1.000  B 
  H29      1.0000 0.31976  0.53780  0.60740  Biso   1.000  H 
  H30      1.0000 0.31293  0.45431  0.60601  Biso   1.000  H 
  H31      1.0000 0.19336  0.54512  0.89537  Biso   1.000  H 
  H32      1.0000 0.17274  0.46529  0.89094  Biso   1.000  H 
  B161     1.0000 0.84640  0.15360  0.00000  Biso   1.000  B 
  B162     1.0000 0.90471  0.17046  0.00000  Biso   1.000  B 
  B163     1.0000 0.82954  0.09529  0.00000  Biso   1.000  B 
  B164     1.0000 0.79500  0.20500  0.00000  Biso   1.000  B 
  B165     1.0000 0.73249  0.18437  0.00000  Biso   1.000  B 
  B166     1.0000 0.72128  0.13046  0.00000  Biso   1.000  B 
  N17      1.0000 0.61580  0.21178  0.00157  Biso   1.000  N 
  B167     1.0000 0.68442  0.23249  0.00000  Biso   1.000  B 
  B168     1.0000 0.70500  0.29500  0.00000  Biso   1.000  B 
  B169     1.0000 0.76751  0.31558  0.00000  Biso   1.000  B 
  B170     1.0000 0.81563  0.26751  0.00000  Biso   1.000  B 
  N18      1.0000 0.88521  0.28936  0.00188  Biso   1.000  N 
  B171     1.0000 0.77872  0.36949  0.00000  Biso   1.000  B 
  B172     1.0000 0.67046  0.40470  0.00000  Biso   1.000  B 
  B173     1.0000 0.65360  0.34640  0.00000  Biso   1.000  B 
  B174     1.0000 0.59529  0.32954  0.00000  Biso   1.000  B 
  H33      1.0000 0.60880  0.17370  0.03383  Biso   1.000  H 
  H34      1.0000 0.59943  0.19636  0.95659  Biso   1.000  H 
  H35      1.0000 0.89387  0.31211  0.04644  Biso   1.000  H 
  H36      1.0000 0.89300  0.32004  0.96289  Biso   1.000  H 
  B175     1.0000 0.84640  0.65360  0.50000  Biso   1.000  B 
  B176     1.0000 0.90471  0.67046  0.50000  Biso   1.000  B 
  B177     1.0000 0.82954  0.59529  0.50000  Biso   1.000  B 
  B178     1.0000 0.79500  0.70500  0.50000  Biso   1.000  B 
  B179     1.0000 0.73249  0.68437  0.50000  Biso   1.000  B 
  B180     1.0000 0.72128  0.63046  0.50000  Biso   1.000  B 
  N19      1.0000 0.61688  0.71246  0.49981  Biso   1.000  N 
  B181     1.0000 0.68442  0.73248  0.50000  Biso   1.000  B 
  B182     1.0000 0.70500  0.79499  0.50000  Biso   1.000  B 
  B183     1.0000 0.76751  0.81558  0.50000  Biso   1.000  B 
  B184     1.0000 0.81563  0.76751  0.50000  Biso   1.000  B 
  N20      1.0000 0.88525  0.78879  0.50155  Biso   1.000  N 
  B185     1.0000 0.77872  0.86949  0.50000  Biso   1.000  B 
  B186     1.0000 0.67046  0.90470  0.50000  Biso   1.000  B 
  B187     1.0000 0.65360  0.84639  0.50000  Biso   1.000  B 
  B188     1.0000 0.59529  0.82953  0.50000  Biso   1.000  B 
  H37      1.0000 0.60953  0.68081  0.53861  Biso   1.000  H 
  H38      1.0000 0.60550  0.69196  0.45567  Biso   1.000  H 
  H39      1.0000 0.89507  0.81050  0.54640  Biso   1.000  H 
  H40      1.0000 0.89634  0.82128  0.46437  Biso   1.000  H 
  B189     1.0000 0.34640  0.15360  0.50000  Biso   1.000  B 
  B190     1.0000 0.40471  0.17046  0.50000  Biso   1.000  B 
  B191     1.0000 0.32954  0.09529  0.50000  Biso   1.000  B 
  B192     1.0000 0.29500  0.20500  0.50000  Biso   1.000  B 
  B193     1.0000 0.23249  0.18437  0.50000  Biso   1.000  B 
  B194     1.0000 0.22128  0.13046  0.50000  Biso   1.000  B 
  N21      1.0000 0.11603  0.21238  0.49276  Biso   1.000  N 
  B195     1.0000 0.18442  0.23249  0.50000  Biso   1.000  B 
  B196     1.0000 0.20500  0.29500  0.50000  Biso   1.000  B 
  B197     1.0000 0.26751  0.31558  0.50000  Biso   1.000  B 
  B198     1.0000 0.31563  0.26751  0.50000  Biso   1.000  B 
  N22      1.0000 0.38428  0.28716  0.49973  Biso   1.000  N 
  B199     1.0000 0.27872  0.36949  0.50000  Biso   1.000  B 
  B200     1.0000 0.17046  0.40470  0.50000  Biso   1.000  B 
  B201     1.0000 0.15360  0.34640  0.50000  Biso   1.000  B 
  B202     1.0000 0.09529  0.32954  0.50000  Biso   1.000  B 
  H41      1.0000 0.09451  0.18074  0.52491  Biso   1.000  H 
  H42      1.0000 0.12055  0.19610  0.44489  Biso   1.000  H 
  H43      1.0000 0.38725  0.31722  0.45941  Biso   1.000  H 
  H44      1.0000 0.39675  0.31622  0.53971  Biso   1.000  H 
  B203     1.0000 0.34640  0.65360  0.00000  Biso   1.000  B 
  B204     1.0000 0.40471  0.67046  0.00000  Biso   1.000  B 
  B205     1.0000 0.32954  0.59529  0.00000  Biso   1.000  B 
  B206     1.0000 0.29500  0.70500  0.00000  Biso   1.000  B 
  B207     1.0000 0.23249  0.68437  0.00000  Biso   1.000  B 
  B208     1.0000 0.22128  0.63046  0.00000  Biso   1.000  B 
  N23      1.0000 0.11489  0.71058  0.00182  Biso   1.000  N 
  B209     1.0000 0.18442  0.73248  0.00000  Biso   1.000  B 
  B210     1.0000 0.20500  0.79499  0.00000  Biso   1.000  B 
  B211     1.0000 0.26751  0.81558  0.00000  Biso   1.000  B 
  B212     1.0000 0.31563  0.76751  0.00000  Biso   1.000  B 
  N24      1.0000 0.38475  0.78723  0.00364  Biso   1.000  N 
  B213     1.0000 0.27872  0.86949  0.00000  Biso   1.000  B 
  B214     1.0000 0.17046  0.90470  0.00000  Biso   1.000  B 
  B215     1.0000 0.15360  0.84639  0.00000  Biso   1.000  B 
  B216     1.0000 0.09529  0.82953  0.00000  Biso   1.000  B 
  H45      1.0000 0.10730  0.68013  0.96263  Biso   1.000  H 
  H46      1.0000 0.10609  0.68732  0.04612  Biso   1.000  H 
  H47      1.0000 0.39739  0.82191  0.03822  Biso   1.000  H 
  H48      1.0000 0.38825  0.81305  0.95962  Biso   1.000  H 
  B217     1.0000 0.84640  0.84640  0.00000  Biso   1.000  B 
  B218     1.0000 0.90471  0.82954  0.00000  Biso   1.000  B 
  B219     1.0000 0.82954  0.90471  0.00000  Biso   1.000  B 
  B220     1.0000 0.79500  0.79500  0.00000  Biso   1.000  B 
  B221     1.0000 0.73249  0.81563  0.00000  Biso   1.000  B 
  B222     1.0000 0.72128  0.86954  0.00000  Biso   1.000  B 
  N25      1.0000 0.61486  0.78936  0.00151  Biso   1.000  N 
  B223     1.0000 0.68442  0.76752  0.00000  Biso   1.000  B 
  B224     1.0000 0.70500  0.70501  0.00000  Biso   1.000  B 
  B225     1.0000 0.76751  0.68442  0.00000  Biso   1.000  B 
  B226     1.0000 0.81563  0.73249  0.00000  Biso   1.000  B 
  N26      1.0000 0.88426  0.71292  0.00015  Biso   1.000  N 
  B227     1.0000 0.77872  0.63051  0.00000  Biso   1.000  B 
  B228     1.0000 0.67046  0.59530  0.00000  Biso   1.000  B 
  B229     1.0000 0.65360  0.65361  0.00000  Biso   1.000  B 
  B230     1.0000 0.59529  0.67047  0.00000  Biso   1.000  B 
  H49      1.0000 0.60759  0.82036  0.96265  Biso   1.000  H 
  H50      1.0000 0.60599  0.81179  0.04615  Biso   1.000  H 
  H51      1.0000 0.88716  0.68269  0.04031  Biso   1.000  H 
  H52      1.0000 0.89692  0.68391  0.96028  Biso   1.000  H 
  B231     1.0000 0.84640  0.34640  0.50000  Biso   1.000  B 
  B232     1.0000 0.90471  0.32954  0.50000  Biso   1.000  B 
  B233     1.0000 0.82954  0.40471  0.50000  Biso   1.000  B 
  B234     1.0000 0.79500  0.29500  0.50000  Biso   1.000  B 
  B235     1.0000 0.73249  0.31563  0.50000  Biso   1.000  B 
  B236     1.0000 0.72128  0.36954  0.50000  Biso   1.000  B 
  N27      1.0000 0.61487  0.28943  0.49838  Biso   1.000  N 
  B237     1.0000 0.68442  0.26751  0.50000  Biso   1.000  B 
  B238     1.0000 0.70500  0.20500  0.50000  Biso   1.000  B 
  B239     1.0000 0.76751  0.18442  0.50000  Biso   1.000  B 
  B240     1.0000 0.81563  0.23249  0.50000  Biso   1.000  B 
  N28      1.0000 0.88628  0.21482  0.49462  Biso   1.000  N 
  B241     1.0000 0.77872  0.13051  0.50000  Biso   1.000  B 
  B242     1.0000 0.67046  0.09530  0.50000  Biso   1.000  B 
  B243     1.0000 0.65360  0.15360  0.50000  Biso   1.000  B 
  B244     1.0000 0.59529  0.17046  0.50000  Biso   1.000  B 
  H53      1.0000 0.60739  0.31993  0.53755  Biso   1.000  H 
  H54      1.0000 0.60609  0.31258  0.45404  Biso   1.000  H 
  H55      1.0000 0.89731  0.18130  0.45461  Biso   1.000  H 
  H56      1.0000 0.90608  0.20734  0.54237  Biso   1.000  H 
  B245     1.0000 0.34640  0.84640  0.50000  Biso   1.000  B 
  B246     1.0000 0.40471  0.82954  0.50000  Biso   1.000  B 
  B247     1.0000 0.32954  0.90471  0.50000  Biso   1.000  B 
  B248     1.0000 0.29500  0.79500  0.50000  Biso   1.000  B 
  B249     1.0000 0.23249  0.81563  0.50000  Biso   1.000  B 
  B250     1.0000 0.22128  0.86954  0.50000  Biso   1.000  B 
  N29      1.0000 0.11479  0.78897  0.49860  Biso   1.000  N 
  B251     1.0000 0.18442  0.76752  0.50000  Biso   1.000  B 
  B252     1.0000 0.20500  0.70501  0.50000  Biso   1.000  B 
  B253     1.0000 0.26751  0.68442  0.50000  Biso   1.000  B 
  B254     1.0000 0.31563  0.73249  0.50000  Biso   1.000  B 
  N30      1.0000 0.38521  0.71064  0.49823  Biso   1.000  N 
  B255     1.0000 0.27872  0.63051  0.50000  Biso   1.000  B 
  B256     1.0000 0.17046  0.59530  0.50000  Biso   1.000  B 
  B257     1.0000 0.15360  0.65361  0.50000  Biso   1.000  B 
  B258     1.0000 0.09529  0.67047  0.50000  Biso   1.000  B 
  H57      1.0000 0.10482  0.82179  0.53588  Biso   1.000  H 
  H58      1.0000 0.10535  0.81011  0.45338  Biso   1.000  H 
  H59      1.0000 0.39399  0.68784  0.45371  Biso   1.000  H 
  H60      1.0000 0.39296  0.68002  0.53727  Biso   1.000  H 
  B259     1.0000 0.34640  0.34640  0.00000  Biso   1.000  B 
  B260     1.0000 0.40471  0.32954  0.00000  Biso   1.000  B 
  B261     1.0000 0.32954  0.40471  0.00000  Biso   1.000  B 
  B262     1.0000 0.29500  0.29500  0.00000  Biso   1.000  B 
  B263     1.0000 0.23249  0.31563  0.00000  Biso   1.000  B 
  B264     1.0000 0.22128  0.36954  0.00000  Biso   1.000  B 
  N31      1.0000 0.11662  0.28791  0.99513  Biso   1.000  N 
  B265     1.0000 0.18442  0.26751  0.00000  Biso   1.000  B 
  B266     1.0000 0.20500  0.20500  0.00000  Biso   1.000  B 
  B267     1.0000 0.26751  0.18442  0.00000  Biso   1.000  B 
  B268     1.0000 0.31563  0.23249  0.00000  Biso   1.000  B 
  N32      1.0000 0.38523  0.21071  0.99813  Biso   1.000  N 
  B269     1.0000 0.27872  0.13051  0.00000  Biso   1.000  B 
  B270     1.0000 0.17046  0.09530  0.00000  Biso   1.000  B 
  B271     1.0000 0.15360  0.15360  0.00000  Biso   1.000  B 
  B272     1.0000 0.09529  0.17046  0.00000  Biso   1.000  B 
  H61      1.0000 0.10918  0.32920  0.96725  Biso   1.000  H 
  H62      1.0000 0.10153  0.29578  0.04216  Biso   1.000  H 
  H63      1.0000 0.39392  0.18872  0.95323  Biso   1.000  H 
  H64      1.0000 0.39293  0.17954  0.03677  Biso   1.000  H 
  B273     1.0000 0.00000  0.84640  0.15360  Biso   1.000  B 
  B274     1.0000 0.00000  0.90471  0.17046  Biso   1.000  B 
  B275     1.0000 0.00000  0.82954  0.09529  Biso   1.000  B 
  B276     1.0000 0.00000  0.79500  0.20500  Biso   1.000  B 
  B277     1.0000 0.00000  0.73249  0.18437  Biso   1.000  B 
  B278     1.0000 0.00000  0.72128  0.13046  Biso   1.000  B 
  N33      1.0000 0.00147  0.61483  0.21065  Biso   1.000  N 
  B279     1.0000 0.00000  0.68442  0.23249  Biso   1.000  B 
  B280     1.0000 0.00000  0.70500  0.29500  Biso   1.000  B 
  B281     1.0000 0.00000  0.76751  0.31558  Biso   1.000  B 
  B282     1.0000 0.00000  0.81563  0.26751  Biso   1.000  B 
  N34      1.0000 0.00860  0.88746  0.28739  Biso   1.000  N 
  B283     1.0000 0.00000  0.77872  0.36949  Biso   1.000  B 
  B284     1.0000 0.00000  0.67046  0.40470  Biso   1.000  B 
  B285     1.0000 0.00000  0.65360  0.34640  Biso   1.000  B 
  B286     1.0000 0.00000  0.59529  0.32954  Biso   1.000  B 
  H65      1.0000 0.96268  0.60755  0.17955  Biso   1.000  H 
  H66      1.0000 0.04618  0.60609  0.18834  Biso   1.000  H 
  H67      1.0000 0.96538  0.91562  0.28762  Biso   1.000  H 
  H68      1.0000 0.04177  0.89414  0.32523  Biso   1.000  H 
  B287     1.0000 0.00000  0.34640  0.65360  Biso   1.000  B 
  B288     1.0000 0.00000  0.40471  0.67046  Biso   1.000  B 
  B289     1.0000 0.00000  0.32954  0.59529  Biso   1.000  B 
  B290     1.0000 0.00000  0.29500  0.70500  Biso   1.000  B 
  B291     1.0000 0.00000  0.23249  0.68437  Biso   1.000  B 
  B292     1.0000 0.00000  0.22128  0.63046  Biso   1.000  B 
  N35      1.0000 0.00126  0.11477  0.71106  Biso   1.000  N 
  B293     1.0000 0.00000  0.18442  0.73248  Biso   1.000  B 
  B294     1.0000 0.00000  0.20500  0.79499  Biso   1.000  B 
  B295     1.0000 0.00000  0.26751  0.81558  Biso   1.000  B 
  B296     1.0000 0.00000  0.31563  0.76751  Biso   1.000  B 
  N36      1.0000 0.99842  0.38417  0.78655  Biso   1.000  N 
  B297     1.0000 0.00000  0.27872  0.86949  Biso   1.000  B 
  B298     1.0000 0.00000  0.17046  0.90470  Biso   1.000  B 
  B299     1.0000 0.00000  0.15360  0.84639  Biso   1.000  B 
  B300     1.0000 0.00000  0.09529  0.82953  Biso   1.000  B 
  H69      1.0000 0.96398  0.10467  0.67828  Biso   1.000  H 
  H70      1.0000 0.04640  0.10512  0.68983  Biso   1.000  H 
  H71      1.0000 0.96048  0.39310  0.81879  Biso   1.000  H 
  H72      1.0000 0.04369  0.39308  0.80826  Biso   1.000  H 
  B301     1.0000 0.50000  0.84640  0.65360  Biso   1.000  B 
  B302     1.0000 0.50000  0.90471  0.67046  Biso   1.000  B 
  B303     1.0000 0.50000  0.82954  0.59529  Biso   1.000  B 
  B304     1.0000 0.50000  0.79500  0.70500  Biso   1.000  B 
  B305     1.0000 0.50000  0.73249  0.68437  Biso   1.000  B 
  B306     1.0000 0.50000  0.72128  0.63046  Biso   1.000  B 
  N37      1.0000 0.49853  0.61484  0.71065  Biso   1.000  N 
  B307     1.0000 0.50000  0.68442  0.73248  Biso   1.000  B 
  B308     1.0000 0.50000  0.70500  0.79499  Biso   1.000  B 
  B309     1.0000 0.50000  0.76751  0.81558  Biso   1.000  B 
  B310     1.0000 0.50000  0.81563  0.76751  Biso   1.000  B 
  N38      1.0000 0.50136  0.88528  0.78883  Biso   1.000  N 
  B311     1.0000 0.50000  0.77872  0.86949  Biso   1.000  B 
  B312     1.0000 0.50000  0.67046  0.90470  Biso   1.000  B 
  B313     1.0000 0.50000  0.65360  0.84639  Biso   1.000  B 
  B314     1.0000 0.50000  0.59529  0.82953  Biso   1.000  B 
  H73      1.0000 0.53729  0.60753  0.67951  Biso   1.000  H 
  H74      1.0000 0.45379  0.60609  0.68841  Biso   1.000  H 
  H75      1.0000 0.54630  0.89502  0.81042  Biso   1.000  H 
  H76      1.0000 0.46412  0.89600  0.82141  Biso   1.000  H 
  B315     1.0000 0.50000  0.34640  0.15360  Biso   1.000  B 
  B316     1.0000 0.50000  0.40471  0.17046  Biso   1.000  B 
  B317     1.0000 0.50000  0.32954  0.09529  Biso   1.000  B 
  B318     1.0000 0.50000  0.29500  0.20500  Biso   1.000  B 
  B319     1.0000 0.50000  0.23249  0.18437  Biso   1.000  B 
  B320     1.0000 0.50000  0.22128  0.13046  Biso   1.000  B 
  N39      1.0000 0.50498  0.11410  0.21442  Biso   1.000  N 
  B321     1.0000 0.50000  0.18442  0.23249  Biso   1.000  B 
  B322     1.0000 0.50000  0.20500  0.29500  Biso   1.000  B 
  B323     1.0000 0.50000  0.26751  0.31558  Biso   1.000  B 
  B324     1.0000 0.50000  0.31563  0.26751  Biso   1.000  B 
  N40      1.0000 0.50173  0.38523  0.28931  Biso   1.000  N 
  B325     1.0000 0.50000  0.27872  0.36949  Biso   1.000  B 
  B326     1.0000 0.50000  0.17046  0.40470  Biso   1.000  B 
  B327     1.0000 0.50000  0.15360  0.34640  Biso   1.000  B 
  B328     1.0000 0.50000  0.09529  0.32954  Biso   1.000  B 
  H77      1.0000 0.50352  0.11244  0.16440  Biso   1.000  H 
  H78      1.0000 0.45884  0.09440  0.22579  Biso   1.000  H 
  H79      1.0000 0.54655  0.39385  0.31148  Biso   1.000  H 
  H80      1.0000 0.46299  0.39290  0.32037  Biso   1.000  H 
  B329     1.0000 0.00000  0.84640  0.84640  Biso   1.000  B 
  B330     1.0000 0.00000  0.90471  0.82954  Biso   1.000  B 
  B331     1.0000 0.00000  0.82954  0.90471  Biso   1.000  B 
  B332     1.0000 0.00000  0.79500  0.79500  Biso   1.000  B 
  B333     1.0000 0.00000  0.73249  0.81563  Biso   1.000  B 
  B334     1.0000 0.00000  0.72128  0.86954  Biso   1.000  B 
  N41      1.0000 0.99847  0.61484  0.78936  Biso   1.000  N 
  B335     1.0000 0.00000  0.68442  0.76752  Biso   1.000  B 
  B336     1.0000 0.00000  0.70500  0.70501  Biso   1.000  B 
  B337     1.0000 0.00000  0.76751  0.68442  Biso   1.000  B 
  B338     1.0000 0.00000  0.81563  0.73249  Biso   1.000  B 
  N42      1.0000 0.99848  0.88528  0.71115  Biso   1.000  N 
  B339     1.0000 0.00000  0.77872  0.63051  Biso   1.000  B 
  B340     1.0000 0.00000  0.67046  0.59530  Biso   1.000  B 
  B341     1.0000 0.00000  0.65360  0.65361  Biso   1.000  B 
  B342     1.0000 0.00000  0.59529  0.67047  Biso   1.000  B 
  H81      1.0000 0.03722  0.60746  0.82050  Biso   1.000  H 
  H82      1.0000 0.95371  0.60621  0.81161  Biso   1.000  H 
  H83      1.0000 0.95339  0.89483  0.68975  Biso   1.000  H 
  H84      1.0000 0.03566  0.89581  0.67843  Biso   1.000  H 
  B343     1.0000 0.00000  0.34640  0.34640  Biso   1.000  B 
  B344     1.0000 0.00000  0.40471  0.32954  Biso   1.000  B 
  B345     1.0000 0.00000  0.32954  0.40471  Biso   1.000  B 
  B346     1.0000 0.00000  0.29500  0.29500  Biso   1.000  B 
  B347     1.0000 0.00000  0.23249  0.31563  Biso   1.000  B 
  B348     1.0000 0.00000  0.22128  0.36954  Biso   1.000  B 
  N43      1.0000 0.00246  0.11659  0.28964  Biso   1.000  N 
  B349     1.0000 0.00000  0.18442  0.26751  Biso   1.000  B 
  B350     1.0000 0.00000  0.20500  0.20500  Biso   1.000  B 
  B351     1.0000 0.00000  0.26751  0.18442  Biso   1.000  B 
  B352     1.0000 0.00000  0.31563  0.23249  Biso   1.000  B 
  N44      1.0000 0.00021  0.38510  0.21405  Biso   1.000  N 
  B353     1.0000 0.00000  0.27872  0.13051  Biso   1.000  B 
  B354     1.0000 0.00000  0.17046  0.09530  Biso   1.000  B 
  B355     1.0000 0.00000  0.15360  0.15360  Biso   1.000  B 
  B356     1.0000 0.00000  0.09529  0.17046  Biso   1.000  B 
  H85      1.0000 0.97624  0.11058  0.33299  Biso   1.000  H 
  H86      1.0000 0.05092  0.09953  0.29331  Biso   1.000  H 
  H87      1.0000 0.04286  0.39790  0.18946  Biso   1.000  H 
  H88      1.0000 0.95979  0.39762  0.18532  Biso   1.000  H 
  B357     1.0000 0.50000  0.84640  0.34640  Biso   1.000  B 
  B358     1.0000 0.50000  0.90471  0.32954  Biso   1.000  B 
  B359     1.0000 0.50000  0.82954  0.40471  Biso   1.000  B 
  B360     1.0000 0.50000  0.79500  0.29500  Biso   1.000  B 
  B361     1.0000 0.50000  0.73249  0.31563  Biso   1.000  B 
  B362     1.0000 0.50000  0.72128  0.36954  Biso   1.000  B 
  N45      1.0000 0.50005  0.61583  0.28737  Biso   1.000  N 
  B363     1.0000 0.50000  0.68442  0.26751  Biso   1.000  B 
  B364     1.0000 0.50000  0.70500  0.20500  Biso   1.000  B 
  B365     1.0000 0.50000  0.76751  0.18442  Biso   1.000  B 
  B366     1.0000 0.50000  0.81563  0.23249  Biso   1.000  B 
  N46      1.0000 0.49722  0.88747  0.21143  Biso   1.000  N 
  B367     1.0000 0.50000  0.77872  0.13051  Biso   1.000  B 
  B368     1.0000 0.50000  0.67046  0.09530  Biso   1.000  B 
  B369     1.0000 0.50000  0.65360  0.15360  Biso   1.000  B 
  B370     1.0000 0.50000  0.59529  0.17046  Biso   1.000  B 
  H89      1.0000 0.47458  0.61441  0.33172  Biso   1.000  H 
  H90      1.0000 0.54617  0.59807  0.29768  Biso   1.000  H 
  H91      1.0000 0.54264  0.91250  0.21674  Biso   1.000  H 
  H92      1.0000 0.47968  0.89846  0.16517  Biso   1.000  H 
  B371     1.0000 0.50000  0.34640  0.84640  Biso   1.000  B 
  B372     1.0000 0.50000  0.40471  0.82954  Biso   1.000  B 
  B373     1.0000 0.50000  0.32954  0.90471  Biso   1.000  B 
  B374     1.0000 0.50000  0.29500  0.79500  Biso   1.000  B 
  B375     1.0000 0.50000  0.23249  0.81563  Biso   1.000  B 
  B376     1.0000 0.50000  0.22128  0.86954  Biso   1.000  B 
  N47      1.0000 0.49862  0.11479  0.78893  Biso   1.000  N 
  B377     1.0000 0.50000  0.18442  0.76752  Biso   1.000  B 
  B378     1.0000 0.50000  0.20500  0.70501  Biso   1.000  B 
  B379     1.0000 0.50000  0.26751  0.68442  Biso   1.000  B 
  B380     1.0000 0.50000  0.31563  0.73249  Biso   1.000  B 
  N48      1.0000 0.49913  0.38485  0.71377  Biso   1.000  N 
  B381     1.0000 0.50000  0.27872  0.63051  Biso   1.000  B 
  B382     1.0000 0.50000  0.17046  0.59530  Biso   1.000  B 
  B383     1.0000 0.50000  0.15360  0.65361  Biso   1.000  B 
  B384     1.0000 0.50000  0.09529  0.67047  Biso   1.000  B 
  H93      1.0000 0.53586  0.10463  0.82174  Biso   1.000  H 
  H94      1.0000 0.45345  0.10520  0.81013  Biso   1.000  H 
  H95      1.0000 0.45679  0.39793  0.68889  Biso   1.000  H 
  H96      1.0000 0.53913  0.39689  0.68434  Biso   1.000  H 
