data_image0
_cell_length_a       20.7004
_cell_length_b       20.7004
_cell_length_c       20.7004
_cell_angle_alpha    90
_cell_angle_beta     90
_cell_angle_gamma    90

_symmetry_space_group_name_H-M    "P 1"
_symmetry_int_tables_number       1

loop_
  _symmetry_equiv_pos_as_xyz
  'x, y, z'

loop_
  _atom_site_label
  _atom_site_occupancy
  _atom_site_fract_x
  _atom_site_fract_y
  _atom_site_fract_z
  _atom_site_thermal_displace_type
  _atom_site_B_iso_or_equiv
  _atom_site_type_symbol
  B1       1.0000 0.11989  0.00000  0.00000  Biso   1.000  B 
  B2       1.0000 0.11989  0.50000  0.50000  Biso   1.000  B 
  B3       1.0000 0.61989  0.00000  0.50000  Biso   1.000  B 
  B4       1.0000 0.61989  0.50000  0.00000  Biso   1.000  B 
  B5       1.0000 0.88011  0.00000  0.00000  Biso   1.000  B 
  B6       1.0000 0.88011  0.50000  0.50000  Biso   1.000  B 
  B7       1.0000 0.38011  0.00000  0.50000  Biso   1.000  B 
  B8       1.0000 0.38011  0.50000  0.00000  Biso   1.000  B 
  B9       1.0000 0.00000  0.11989  0.00000  Biso   1.000  B 
  B10      1.0000 0.00000  0.61989  0.50000  Biso   1.000  B 
  B11      1.0000 0.50000  0.11989  0.50000  Biso   1.000  B 
  B12      1.0000 0.50000  0.61989  0.00000  Biso   1.000  B 
  B13      1.0000 0.00000  0.88011  0.00000  Biso   1.000  B 
  B14      1.0000 0.00000  0.38011  0.50000  Biso   1.000  B 
  B15      1.0000 0.50000  0.88011  0.50000  Biso   1.000  B 
  B16      1.0000 0.50000  0.38011  0.00000  Biso   1.000  B 
  B17      1.0000 0.00000  0.00000  0.11989  Biso   1.000  B 
  B18      1.0000 0.00000  0.50000  0.61989  Biso   1.000  B 
  B19      1.0000 0.50000  0.00000  0.61989  Biso   1.000  B 
  B20      1.0000 0.50000  0.50000  0.11989  Biso   1.000  B 
  B21      1.0000 0.00000  0.00000  0.88011  Biso   1.000  B 
  B22      1.0000 0.00000  0.50000  0.38011  Biso   1.000  B 
  B23      1.0000 0.50000  0.00000  0.38011  Biso   1.000  B 
  B24      1.0000 0.50000  0.50000  0.88011  Biso   1.000  B 
  B25      1.0000 0.05610  0.44390  0.44390  Biso   1.000  B 
  B26      1.0000 0.55610  0.94390  0.44390  Biso   1.000  B 
  B27      1.0000 0.55610  0.44390  0.94390  Biso   1.000  B 
  B28      1.0000 0.44390  0.05610  0.44390  Biso   1.000  B 
  B29      1.0000 0.44390  0.55610  0.94390  Biso   1.000  B 
  B30      1.0000 0.94390  0.94390  0.05610  Biso   1.000  B 
  B31      1.0000 0.94390  0.44390  0.55610  Biso   1.000  B 
  B32      1.0000 0.05610  0.05610  0.05610  Biso   1.000  B 
  B33      1.0000 0.55610  0.55610  0.05610  Biso   1.000  B 
  B34      1.0000 0.94390  0.05610  0.05610  Biso   1.000  B 
  B35      1.0000 0.94390  0.55610  0.55610  Biso   1.000  B 
  B36      1.0000 0.44390  0.05610  0.55610  Biso   1.000  B 
  B37      1.0000 0.44390  0.55610  0.05610  Biso   1.000  B 
  B38      1.0000 0.05610  0.94390  0.05610  Biso   1.000  B 
  B39      1.0000 0.05610  0.44390  0.55610  Biso   1.000  B 
  B40      1.0000 0.55610  0.94390  0.55610  Biso   1.000  B 
  B41      1.0000 0.55610  0.44390  0.05610  Biso   1.000  B 
  B42      1.0000 0.94390  0.94390  0.94390  Biso   1.000  B 
  B43      1.0000 0.94390  0.44390  0.44390  Biso   1.000  B 
  B44      1.0000 0.44390  0.94390  0.44390  Biso   1.000  B 
  B45      1.0000 0.44390  0.44390  0.94390  Biso   1.000  B 
  B46      1.0000 0.05610  0.05610  0.94390  Biso   1.000  B 
  B47      1.0000 0.05610  0.55610  0.44390  Biso   1.000  B 
  B48      1.0000 0.55610  0.05610  0.44390  Biso   1.000  B 
  B49      1.0000 0.15360  0.00000  0.84640  Biso   1.000  B 
  B50      1.0000 0.17046  0.00000  0.90471  Biso   1.000  B 
  B51      1.0000 0.09529  0.00000  0.82954  Biso   1.000  B 
  B52      1.0000 0.20500  0.00000  0.79500  Biso   1.000  B 
  B53      1.0000 0.18437  0.00000  0.73249  Biso   1.000  B 
  B54      1.0000 0.13046  0.00000  0.72128  Biso   1.000  B 
  C1       1.0000 0.20829  0.99979  0.61235  Biso   1.000  C 
  B55      1.0000 0.23249  0.00000  0.68442  Biso   1.000  B 
  B56      1.0000 0.29500  0.00000  0.70500  Biso   1.000  B 
  B57      1.0000 0.31558  0.00000  0.76751  Biso   1.000  B 
  B58      1.0000 0.26751  0.00000  0.81563  Biso   1.000  B 
  C2       1.0000 0.29493  0.99665  0.88795  Biso   1.000  C 
  B59      1.0000 0.36949  0.00000  0.77872  Biso   1.000  B 
  B60      1.0000 0.40470  0.00000  0.67046  Biso   1.000  B 
  B61      1.0000 0.34640  0.00000  0.65360  Biso   1.000  B 
  B62      1.0000 0.32954  0.00000  0.59529  Biso   1.000  B 
  F1       1.0000 0.14063  0.99793  0.60646  Biso   1.000  F 
  F2       1.0000 0.22970  0.94395  0.58151  Biso   1.000  F 
  F3       1.0000 0.22851  0.05475  0.58183  Biso   1.000  F 
  F4       1.0000 0.27544  0.05281  0.91980  Biso   1.000  F 
  F5       1.0000 0.36140  0.99716  0.88473  Biso   1.000  F 
  F6       1.0000 0.27503  0.94052  0.91692  Biso   1.000  F 
  B63      1.0000 0.15360  0.50000  0.34640  Biso   1.000  B 
  B64      1.0000 0.17046  0.50000  0.40471  Biso   1.000  B 
  B65      1.0000 0.09529  0.50000  0.32954  Biso   1.000  B 
  B66      1.0000 0.20500  0.50000  0.29500  Biso   1.000  B 
  B67      1.0000 0.18437  0.50000  0.23249  Biso   1.000  B 
  B68      1.0000 0.13046  0.50000  0.22128  Biso   1.000  B 
  C3       1.0000 0.20829  0.49970  0.11235  Biso   1.000  C 
  B69      1.0000 0.23249  0.50000  0.18442  Biso   1.000  B 
  B70      1.0000 0.29500  0.50000  0.20500  Biso   1.000  B 
  B71      1.0000 0.31558  0.50000  0.26751  Biso   1.000  B 
  B72      1.0000 0.26751  0.50000  0.31563  Biso   1.000  B 
  C4       1.0000 0.29426  0.49656  0.38856  Biso   1.000  C 
  B73      1.0000 0.36949  0.50000  0.27872  Biso   1.000  B 
  B74      1.0000 0.40470  0.50000  0.17046  Biso   1.000  B 
  B75      1.0000 0.34640  0.50000  0.15360  Biso   1.000  B 
  B76      1.0000 0.32954  0.50000  0.09529  Biso   1.000  B 
  F7       1.0000 0.14062  0.49780  0.10647  Biso   1.000  F 
  F8       1.0000 0.22975  0.44385  0.08159  Biso   1.000  F 
  F9       1.0000 0.22847  0.55465  0.08177  Biso   1.000  F 
  F10      1.0000 0.26991  0.54983  0.42224  Biso   1.000  F 
  F11      1.0000 0.35984  0.50323  0.38682  Biso   1.000  F 
  F12      1.0000 0.27915  0.43795  0.41641  Biso   1.000  F 
  B77      1.0000 0.65360  0.00000  0.34640  Biso   1.000  B 
  B78      1.0000 0.67046  0.00000  0.40471  Biso   1.000  B 
  B79      1.0000 0.59529  0.00000  0.32954  Biso   1.000  B 
  B80      1.0000 0.70500  0.00000  0.29500  Biso   1.000  B 
  B81      1.0000 0.68437  0.00000  0.23249  Biso   1.000  B 
  B82      1.0000 0.63046  0.00000  0.22128  Biso   1.000  B 
  C5       1.0000 0.70829  0.99936  0.11238  Biso   1.000  C 
  B83      1.0000 0.73248  0.00000  0.18442  Biso   1.000  B 
  B84      1.0000 0.79499  0.00000  0.20500  Biso   1.000  B 
  B85      1.0000 0.81558  0.00000  0.26751  Biso   1.000  B 
  B86      1.0000 0.76751  0.00000  0.31563  Biso   1.000  B 
  C6       1.0000 0.79423  0.99656  0.38858  Biso   1.000  C 
  B87      1.0000 0.86949  0.00000  0.27872  Biso   1.000  B 
  B88      1.0000 0.90470  0.00000  0.17046  Biso   1.000  B 
  B89      1.0000 0.84639  0.00000  0.15360  Biso   1.000  B 
  B90      1.0000 0.82953  0.00000  0.09529  Biso   1.000  B 
  F13      1.0000 0.64063  0.99729  0.10651  Biso   1.000  F 
  F14      1.0000 0.72992  0.94356  0.08185  Biso   1.000  F 
  F15      1.0000 0.72832  0.05440  0.08167  Biso   1.000  F 
  F16      1.0000 0.76971  0.04976  0.42227  Biso   1.000  F 
  F17      1.0000 0.85979  0.00338  0.38695  Biso   1.000  F 
  F18      1.0000 0.77920  0.93791  0.41639  Biso   1.000  F 
  B91      1.0000 0.65360  0.50000  0.84640  Biso   1.000  B 
  B92      1.0000 0.67046  0.50000  0.90471  Biso   1.000  B 
  B93      1.0000 0.59529  0.50000  0.82954  Biso   1.000  B 
  B94      1.0000 0.70500  0.50000  0.79500  Biso   1.000  B 
  B95      1.0000 0.68437  0.50000  0.73249  Biso   1.000  B 
  B96      1.0000 0.63046  0.50000  0.72128  Biso   1.000  B 
  C7       1.0000 0.70829  0.49938  0.61238  Biso   1.000  C 
  B97      1.0000 0.73248  0.50000  0.68442  Biso   1.000  B 
  B98      1.0000 0.79499  0.50000  0.70500  Biso   1.000  B 
  B99      1.0000 0.81558  0.50000  0.76751  Biso   1.000  B 
  B100     1.0000 0.76751  0.50000  0.81563  Biso   1.000  B 
  C8       1.0000 0.79387  0.49699  0.88882  Biso   1.000  C 
  B101     1.0000 0.86949  0.50000  0.77872  Biso   1.000  B 
  B102     1.0000 0.90470  0.50000  0.67046  Biso   1.000  B 
  B103     1.0000 0.84639  0.50000  0.65360  Biso   1.000  B 
  B104     1.0000 0.82953  0.50000  0.59529  Biso   1.000  B 
  F19      1.0000 0.64063  0.49733  0.60651  Biso   1.000  F 
  F20      1.0000 0.72990  0.44359  0.58183  Biso   1.000  F 
  F21      1.0000 0.72834  0.55443  0.58170  Biso   1.000  F 
  F22      1.0000 0.76818  0.54965  0.92251  Biso   1.000  F 
  F23      1.0000 0.85908  0.50516  0.88822  Biso   1.000  F 
  F24      1.0000 0.77955  0.43792  0.91649  Biso   1.000  F 
  B105     1.0000 0.84640  0.00000  0.84640  Biso   1.000  B 
  B106     1.0000 0.82954  0.00000  0.90471  Biso   1.000  B 
  B107     1.0000 0.90471  0.00000  0.82954  Biso   1.000  B 
  B108     1.0000 0.79500  0.00000  0.79500  Biso   1.000  B 
  B109     1.0000 0.81563  0.00000  0.73249  Biso   1.000  B 
  B110     1.0000 0.86954  0.00000  0.72128  Biso   1.000  B 
  C9       1.0000 0.79170  0.99970  0.61228  Biso   1.000  C 
  B111     1.0000 0.76752  0.00000  0.68442  Biso   1.000  B 
  B112     1.0000 0.70501  0.00000  0.70500  Biso   1.000  B 
  B113     1.0000 0.68442  0.00000  0.76751  Biso   1.000  B 
  B114     1.0000 0.73249  0.00000  0.81563  Biso   1.000  B 
  C10      1.0000 0.70486  0.99416  0.88789  Biso   1.000  C 
  B115     1.0000 0.63051  0.00000  0.77872  Biso   1.000  B 
  B116     1.0000 0.59530  0.00000  0.67046  Biso   1.000  B 
  B117     1.0000 0.65361  0.00000  0.65360  Biso   1.000  B 
  B118     1.0000 0.67047  0.00000  0.59529  Biso   1.000  B 
  F25      1.0000 0.85935  0.99896  0.60649  Biso   1.000  F 
  F26      1.0000 0.77111  0.05400  0.58093  Biso   1.000  F 
  F27      1.0000 0.77094  0.94332  0.58199  Biso   1.000  F 
  F28      1.0000 0.72510  0.04659  0.92181  Biso   1.000  F 
  F29      1.0000 0.72287  0.94137  0.91877  Biso   1.000  F 
  F30      1.0000 0.64098  0.99991  0.88349  Biso   1.000  F 
  B119     1.0000 0.84640  0.50000  0.34640  Biso   1.000  B 
  B120     1.0000 0.82954  0.50000  0.40471  Biso   1.000  B 
  B121     1.0000 0.90471  0.50000  0.32954  Biso   1.000  B 
  B122     1.0000 0.79500  0.50000  0.29500  Biso   1.000  B 
  B123     1.0000 0.81563  0.50000  0.23249  Biso   1.000  B 
  B124     1.0000 0.86954  0.50000  0.22128  Biso   1.000  B 
  C11      1.0000 0.79169  0.49993  0.11228  Biso   1.000  C 
  B125     1.0000 0.76752  0.50000  0.18442  Biso   1.000  B 
  B126     1.0000 0.70501  0.50000  0.20500  Biso   1.000  B 
  B127     1.0000 0.68442  0.50000  0.26751  Biso   1.000  B 
  B128     1.0000 0.73249  0.50000  0.31563  Biso   1.000  B 
  C12      1.0000 0.70476  0.49409  0.38795  Biso   1.000  C 
  B129     1.0000 0.63051  0.50000  0.27872  Biso   1.000  B 
  B130     1.0000 0.59530  0.50000  0.17046  Biso   1.000  B 
  B131     1.0000 0.65361  0.50000  0.15360  Biso   1.000  B 
  B132     1.0000 0.67047  0.50000  0.09529  Biso   1.000  B 
  F31      1.0000 0.85934  0.49927  0.10649  Biso   1.000  F 
  F32      1.0000 0.77100  0.55424  0.08110  Biso   1.000  F 
  F33      1.0000 0.77103  0.44354  0.08180  Biso   1.000  F 
  F34      1.0000 0.72543  0.54599  0.42239  Biso   1.000  F 
  F35      1.0000 0.72254  0.44116  0.41855  Biso   1.000  F 
  F36      1.0000 0.64079  0.50008  0.38350  Biso   1.000  F 
  B133     1.0000 0.34640  0.00000  0.34640  Biso   1.000  B 
  B134     1.0000 0.32954  0.00000  0.40471  Biso   1.000  B 
  B135     1.0000 0.40471  0.00000  0.32954  Biso   1.000  B 
  B136     1.0000 0.29500  0.00000  0.29500  Biso   1.000  B 
  B137     1.0000 0.31563  0.00000  0.23249  Biso   1.000  B 
  B138     1.0000 0.36954  0.00000  0.22128  Biso   1.000  B 
  C13      1.0000 0.29168  0.00023  0.11227  Biso   1.000  C 
  B139     1.0000 0.26751  0.00000  0.18442  Biso   1.000  B 
  B140     1.0000 0.20500  0.00000  0.20500  Biso   1.000  B 
  B141     1.0000 0.18442  0.00000  0.26751  Biso   1.000  B 
  B142     1.0000 0.23249  0.00000  0.31563  Biso   1.000  B 
  C14      1.0000 0.20557  0.99750  0.38786  Biso   1.000  C 
  B143     1.0000 0.13051  0.00000  0.27872  Biso   1.000  B 
  B144     1.0000 0.09530  0.00000  0.17046  Biso   1.000  B 
  B145     1.0000 0.15360  0.00000  0.15360  Biso   1.000  B 
  B146     1.0000 0.17046  0.00000  0.09529  Biso   1.000  B 
  F37      1.0000 0.35932  0.99969  0.10649  Biso   1.000  F 
  F38      1.0000 0.27089  0.05457  0.08127  Biso   1.000  F 
  F39      1.0000 0.27111  0.94389  0.08157  Biso   1.000  F 
  F40      1.0000 0.22554  0.05470  0.41474  Biso   1.000  F 
  F41      1.0000 0.22768  0.94610  0.42073  Biso   1.000  F 
  F42      1.0000 0.14094  0.00168  0.38768  Biso   1.000  F 
  B147     1.0000 0.34640  0.50000  0.84640  Biso   1.000  B 
  B148     1.0000 0.32954  0.50000  0.90471  Biso   1.000  B 
  B149     1.0000 0.40471  0.50000  0.82954  Biso   1.000  B 
  B150     1.0000 0.29500  0.50000  0.79500  Biso   1.000  B 
  B151     1.0000 0.31563  0.50000  0.73249  Biso   1.000  B 
  B152     1.0000 0.36954  0.50000  0.72128  Biso   1.000  B 
  C15      1.0000 0.29170  0.49969  0.61228  Biso   1.000  C 
  B153     1.0000 0.26751  0.50000  0.68442  Biso   1.000  B 
  B154     1.0000 0.20500  0.50000  0.70500  Biso   1.000  B 
  B155     1.0000 0.18442  0.50000  0.76751  Biso   1.000  B 
  B156     1.0000 0.23249  0.50000  0.81563  Biso   1.000  B 
  C16      1.0000 0.20557  0.49746  0.88786  Biso   1.000  C 
  B157     1.0000 0.13051  0.50000  0.77872  Biso   1.000  B 
  B158     1.0000 0.09530  0.50000  0.67046  Biso   1.000  B 
  B159     1.0000 0.15360  0.50000  0.65360  Biso   1.000  B 
  B160     1.0000 0.17046  0.50000  0.59529  Biso   1.000  B 
  F43      1.0000 0.35935  0.49896  0.60649  Biso   1.000  F 
  F44      1.0000 0.27112  0.55400  0.58092  Biso   1.000  F 
  F45      1.0000 0.27094  0.44332  0.58199  Biso   1.000  F 
  F46      1.0000 0.22553  0.55464  0.91479  Biso   1.000  F 
  F47      1.0000 0.22766  0.44604  0.92070  Biso   1.000  F 
  F48      1.0000 0.14093  0.50166  0.88767  Biso   1.000  F 
  B161     1.0000 0.84640  0.15360  0.00000  Biso   1.000  B 
  B162     1.0000 0.90471  0.17046  0.00000  Biso   1.000  B 
  B163     1.0000 0.82954  0.09529  0.00000  Biso   1.000  B 
  B164     1.0000 0.79500  0.20500  0.00000  Biso   1.000  B 
  B165     1.0000 0.73249  0.18437  0.00000  Biso   1.000  B 
  B166     1.0000 0.72128  0.13046  0.00000  Biso   1.000  B 
  C17      1.0000 0.61237  0.20829  0.99954  Biso   1.000  C 
  B167     1.0000 0.68442  0.23249  0.00000  Biso   1.000  B 
  B168     1.0000 0.70500  0.29500  0.00000  Biso   1.000  B 
  B169     1.0000 0.76751  0.31558  0.00000  Biso   1.000  B 
  B170     1.0000 0.81563  0.26751  0.00000  Biso   1.000  B 
  C18      1.0000 0.88797  0.29491  0.99654  Biso   1.000  C 
  B171     1.0000 0.77872  0.36949  0.00000  Biso   1.000  B 
  B172     1.0000 0.67046  0.40470  0.00000  Biso   1.000  B 
  B173     1.0000 0.65360  0.34640  0.00000  Biso   1.000  B 
  B174     1.0000 0.59529  0.32954  0.00000  Biso   1.000  B 
  F49      1.0000 0.60651  0.14063  0.99756  Biso   1.000  F 
  F50      1.0000 0.58170  0.22983  0.94376  Biso   1.000  F 
  F51      1.0000 0.58181  0.22840  0.05460  Biso   1.000  F 
  F52      1.0000 0.92002  0.27499  0.05246  Biso   1.000  F 
  F53      1.0000 0.88480  0.36136  0.99753  Biso   1.000  F 
  F54      1.0000 0.91681  0.27538  0.94020  Biso   1.000  F 
  B175     1.0000 0.84640  0.65360  0.50000  Biso   1.000  B 
  B176     1.0000 0.90471  0.67046  0.50000  Biso   1.000  B 
  B177     1.0000 0.82954  0.59529  0.50000  Biso   1.000  B 
  B178     1.0000 0.79500  0.70500  0.50000  Biso   1.000  B 
  B179     1.0000 0.73249  0.68437  0.50000  Biso   1.000  B 
  B180     1.0000 0.72128  0.63046  0.50000  Biso   1.000  B 
  C19      1.0000 0.61238  0.70829  0.49938  Biso   1.000  C 
  B181     1.0000 0.68442  0.73248  0.50000  Biso   1.000  B 
  B182     1.0000 0.70500  0.79499  0.50000  Biso   1.000  B 
  B183     1.0000 0.76751  0.81558  0.50000  Biso   1.000  B 
  B184     1.0000 0.81563  0.76751  0.50000  Biso   1.000  B 
  C20      1.0000 0.88816  0.79472  0.49641  Biso   1.000  C 
  B185     1.0000 0.77872  0.86949  0.50000  Biso   1.000  B 
  B186     1.0000 0.67046  0.90470  0.50000  Biso   1.000  B 
  B187     1.0000 0.65360  0.84639  0.50000  Biso   1.000  B 
  B188     1.0000 0.59529  0.82953  0.50000  Biso   1.000  B 
  F55      1.0000 0.60651  0.64063  0.49732  Biso   1.000  F 
  F56      1.0000 0.58182  0.72990  0.44359  Biso   1.000  F 
  F57      1.0000 0.58169  0.72833  0.55443  Biso   1.000  F 
  F58      1.0000 0.92097  0.77301  0.55127  Biso   1.000  F 
  F59      1.0000 0.88529  0.86087  0.49972  Biso   1.000  F 
  F60      1.0000 0.91653  0.77711  0.43906  Biso   1.000  F 
  B189     1.0000 0.34640  0.15360  0.50000  Biso   1.000  B 
  B190     1.0000 0.40471  0.17046  0.50000  Biso   1.000  B 
  B191     1.0000 0.32954  0.09529  0.50000  Biso   1.000  B 
  B192     1.0000 0.29500  0.20500  0.50000  Biso   1.000  B 
  B193     1.0000 0.23249  0.18437  0.50000  Biso   1.000  B 
  B194     1.0000 0.22128  0.13046  0.50000  Biso   1.000  B 
  C21      1.0000 0.11236  0.20829  0.49930  Biso   1.000  C 
  B195     1.0000 0.18442  0.23249  0.50000  Biso   1.000  B 
  B196     1.0000 0.20500  0.29500  0.50000  Biso   1.000  B 
  B197     1.0000 0.26751  0.31558  0.50000  Biso   1.000  B 
  B198     1.0000 0.31563  0.26751  0.50000  Biso   1.000  B 
  C22      1.0000 0.38857  0.29425  0.49659  Biso   1.000  C 
  B199     1.0000 0.27872  0.36949  0.50000  Biso   1.000  B 
  B200     1.0000 0.17046  0.40470  0.50000  Biso   1.000  B 
  B201     1.0000 0.15360  0.34640  0.50000  Biso   1.000  B 
  B202     1.0000 0.09529  0.32954  0.50000  Biso   1.000  B 
  F61      1.0000 0.10648  0.14063  0.49722  Biso   1.000  F 
  F62      1.0000 0.08189  0.22994  0.44346  Biso   1.000  F 
  F63      1.0000 0.08153  0.22831  0.55427  Biso   1.000  F 
  F64      1.0000 0.42224  0.26977  0.54982  Biso   1.000  F 
  F65      1.0000 0.38691  0.35981  0.50337  Biso   1.000  F 
  F66      1.0000 0.41641  0.27920  0.43796  Biso   1.000  F 
  B203     1.0000 0.34640  0.65360  0.00000  Biso   1.000  B 
  B204     1.0000 0.40471  0.67046  0.00000  Biso   1.000  B 
  B205     1.0000 0.32954  0.59529  0.00000  Biso   1.000  B 
  B206     1.0000 0.29500  0.70500  0.00000  Biso   1.000  B 
  B207     1.0000 0.23249  0.68437  0.00000  Biso   1.000  B 
  B208     1.0000 0.22128  0.63046  0.00000  Biso   1.000  B 
  C23      1.0000 0.11235  0.70830  0.99973  Biso   1.000  C 
  B209     1.0000 0.18442  0.73248  0.00000  Biso   1.000  B 
  B210     1.0000 0.20500  0.79499  0.00000  Biso   1.000  B 
  B211     1.0000 0.26751  0.81558  0.00000  Biso   1.000  B 
  B212     1.0000 0.31563  0.76751  0.00000  Biso   1.000  B 
  C24      1.0000 0.38814  0.79471  0.99638  Biso   1.000  C 
  B213     1.0000 0.27872  0.86949  0.00000  Biso   1.000  B 
  B214     1.0000 0.17046  0.90470  0.00000  Biso   1.000  B 
  B215     1.0000 0.15360  0.84639  0.00000  Biso   1.000  B 
  B216     1.0000 0.09529  0.82953  0.00000  Biso   1.000  B 
  F67      1.0000 0.10647  0.64063  0.99785  Biso   1.000  F 
  F68      1.0000 0.08156  0.72973  0.94388  Biso   1.000  F 
  F69      1.0000 0.08178  0.72848  0.05468  Biso   1.000  F 
  F70      1.0000 0.42096  0.77313  0.05125  Biso   1.000  F 
  F71      1.0000 0.38527  0.86088  0.99958  Biso   1.000  F 
  F72      1.0000 0.41652  0.77702  0.93901  Biso   1.000  F 
  B217     1.0000 0.84640  0.84640  0.00000  Biso   1.000  B 
  B218     1.0000 0.90471  0.82954  0.00000  Biso   1.000  B 
  B219     1.0000 0.82954  0.90471  0.00000  Biso   1.000  B 
  B220     1.0000 0.79500  0.79500  0.00000  Biso   1.000  B 
  B221     1.0000 0.73249  0.81563  0.00000  Biso   1.000  B 
  B222     1.0000 0.72128  0.86954  0.00000  Biso   1.000  B 
  C25      1.0000 0.61227  0.79168  0.00064  Biso   1.000  C 
  B223     1.0000 0.68442  0.76752  0.00000  Biso   1.000  B 
  B224     1.0000 0.70500  0.70501  0.00000  Biso   1.000  B 
  B225     1.0000 0.76751  0.68442  0.00000  Biso   1.000  B 
  B226     1.0000 0.81563  0.73249  0.00000  Biso   1.000  B 
  C26      1.0000 0.88789  0.70557  0.99764  Biso   1.000  C 
  B227     1.0000 0.77872  0.63051  0.00000  Biso   1.000  B 
  B228     1.0000 0.67046  0.59530  0.00000  Biso   1.000  B 
  B229     1.0000 0.65360  0.65361  0.00000  Biso   1.000  B 
  B230     1.0000 0.59529  0.67047  0.00000  Biso   1.000  B 
  F73      1.0000 0.60652  0.85932  0.00027  Biso   1.000  F 
  F74      1.0000 0.58158  0.77071  0.05500  Biso   1.000  F 
  F75      1.0000 0.58127  0.77130  0.94431  Biso   1.000  F 
  F76      1.0000 0.91466  0.72591  0.05483  Biso   1.000  F 
  F77      1.0000 0.92072  0.72773  0.94616  Biso   1.000  F 
  F78      1.0000 0.88790  0.64081  0.00209  Biso   1.000  F 
  B231     1.0000 0.84640  0.34640  0.50000  Biso   1.000  B 
  B232     1.0000 0.90471  0.32954  0.50000  Biso   1.000  B 
  B233     1.0000 0.82954  0.40471  0.50000  Biso   1.000  B 
  B234     1.0000 0.79500  0.29500  0.50000  Biso   1.000  B 
  B235     1.0000 0.73249  0.31563  0.50000  Biso   1.000  B 
  B236     1.0000 0.72128  0.36954  0.50000  Biso   1.000  B 
  C27      1.0000 0.61228  0.29170  0.49976  Biso   1.000  C 
  B237     1.0000 0.68442  0.26751  0.50000  Biso   1.000  B 
  B238     1.0000 0.70500  0.20500  0.50000  Biso   1.000  B 
  B239     1.0000 0.76751  0.18442  0.50000  Biso   1.000  B 
  B240     1.0000 0.81563  0.23249  0.50000  Biso   1.000  B 
  C28      1.0000 0.88773  0.20555  0.49648  Biso   1.000  C 
  B241     1.0000 0.77872  0.13051  0.50000  Biso   1.000  B 
  B242     1.0000 0.67046  0.09530  0.50000  Biso   1.000  B 
  B243     1.0000 0.65360  0.15360  0.50000  Biso   1.000  B 
  B244     1.0000 0.59529  0.17046  0.50000  Biso   1.000  B 
  F79      1.0000 0.60649  0.35935  0.49908  Biso   1.000  F 
  F80      1.0000 0.58098  0.27108  0.55408  Biso   1.000  F 
  F81      1.0000 0.58194  0.27098  0.44339  Biso   1.000  F 
  F82      1.0000 0.91587  0.22399  0.55325  Biso   1.000  F 
  F83      1.0000 0.92061  0.22679  0.44508  Biso   1.000  F 
  F84      1.0000 0.88620  0.14154  0.50002  Biso   1.000  F 
  B245     1.0000 0.34640  0.84640  0.50000  Biso   1.000  B 
  B246     1.0000 0.40471  0.82954  0.50000  Biso   1.000  B 
  B247     1.0000 0.32954  0.90471  0.50000  Biso   1.000  B 
  B248     1.0000 0.29500  0.79500  0.50000  Biso   1.000  B 
  B249     1.0000 0.23249  0.81563  0.50000  Biso   1.000  B 
  B250     1.0000 0.22128  0.86954  0.50000  Biso   1.000  B 
  C29      1.0000 0.11228  0.79170  0.49968  Biso   1.000  C 
  B251     1.0000 0.18442  0.76752  0.50000  Biso   1.000  B 
  B252     1.0000 0.20500  0.70501  0.50000  Biso   1.000  B 
  B253     1.0000 0.26751  0.68442  0.50000  Biso   1.000  B 
  B254     1.0000 0.31563  0.73249  0.50000  Biso   1.000  B 
  C30      1.0000 0.38789  0.70484  0.49409  Biso   1.000  C 
  B255     1.0000 0.27872  0.63051  0.50000  Biso   1.000  B 
  B256     1.0000 0.17046  0.59530  0.50000  Biso   1.000  B 
  B257     1.0000 0.15360  0.65361  0.50000  Biso   1.000  B 
  B258     1.0000 0.09529  0.67047  0.50000  Biso   1.000  B 
  F85      1.0000 0.10647  0.85935  0.49891  Biso   1.000  F 
  F86      1.0000 0.08089  0.77114  0.55398  Biso   1.000  F 
  F87      1.0000 0.08200  0.77090  0.44331  Biso   1.000  F 
  F88      1.0000 0.42191  0.72509  0.54645  Biso   1.000  F 
  F89      1.0000 0.41872  0.72285  0.44127  Biso   1.000  F 
  F90      1.0000 0.38348  0.64094  0.49986  Biso   1.000  F 
  B259     1.0000 0.34640  0.34640  0.00000  Biso   1.000  B 
  B260     1.0000 0.40471  0.32954  0.00000  Biso   1.000  B 
  B261     1.0000 0.32954  0.40471  0.00000  Biso   1.000  B 
  B262     1.0000 0.29500  0.29500  0.00000  Biso   1.000  B 
  B263     1.0000 0.23249  0.31563  0.00000  Biso   1.000  B 
  B264     1.0000 0.22128  0.36954  0.00000  Biso   1.000  B 
  C31      1.0000 0.11227  0.29168  0.00020  Biso   1.000  C 
  B265     1.0000 0.18442  0.26751  0.00000  Biso   1.000  B 
  B266     1.0000 0.20500  0.20500  0.00000  Biso   1.000  B 
  B267     1.0000 0.26751  0.18442  0.00000  Biso   1.000  B 
  B268     1.0000 0.31563  0.23249  0.00000  Biso   1.000  B 
  C32      1.0000 0.38791  0.20482  0.99411  Biso   1.000  C 
  B269     1.0000 0.27872  0.13051  0.00000  Biso   1.000  B 
  B270     1.0000 0.17046  0.09530  0.00000  Biso   1.000  B 
  B271     1.0000 0.15360  0.15360  0.00000  Biso   1.000  B 
  B272     1.0000 0.09529  0.17046  0.00000  Biso   1.000  B 
  F91      1.0000 0.10649  0.35933  0.99961  Biso   1.000  F 
  F92      1.0000 0.08125  0.27091  0.05453  Biso   1.000  F 
  F93      1.0000 0.08160  0.27108  0.94385  Biso   1.000  F 
  F94      1.0000 0.42204  0.22522  0.04633  Biso   1.000  F 
  F95      1.0000 0.41868  0.22277  0.94127  Biso   1.000  F 
  F96      1.0000 0.38350  0.14091  0.99992  Biso   1.000  F 
  B273     1.0000 0.00000  0.84640  0.15360  Biso   1.000  B 
  B274     1.0000 0.00000  0.90471  0.17046  Biso   1.000  B 
  B275     1.0000 0.00000  0.82954  0.09529  Biso   1.000  B 
  B276     1.0000 0.00000  0.79500  0.20500  Biso   1.000  B 
  B277     1.0000 0.00000  0.73249  0.18437  Biso   1.000  B 
  B278     1.0000 0.00000  0.72128  0.13046  Biso   1.000  B 
  C33      1.0000 0.99971  0.61235  0.20829  Biso   1.000  C 
  B279     1.0000 0.00000  0.68442  0.23249  Biso   1.000  B 
  B280     1.0000 0.00000  0.70500  0.29500  Biso   1.000  B 
  B281     1.0000 0.00000  0.76751  0.31558  Biso   1.000  B 
  B282     1.0000 0.00000  0.81563  0.26751  Biso   1.000  B 
  C34      1.0000 0.99639  0.88838  0.29446  Biso   1.000  C 
  B283     1.0000 0.00000  0.77872  0.36949  Biso   1.000  B 
  B284     1.0000 0.00000  0.67046  0.40470  Biso   1.000  B 
  B285     1.0000 0.00000  0.65360  0.34640  Biso   1.000  B 
  B286     1.0000 0.00000  0.59529  0.32954  Biso   1.000  B 
  F97      1.0000 0.99783  0.60647  0.14062  Biso   1.000  F 
  F98      1.0000 0.94387  0.58158  0.22974  Biso   1.000  F 
  F99      1.0000 0.05467  0.58178  0.22847  Biso   1.000  F 
  F100     1.0000 0.05017  0.92186  0.27104  Biso   1.000  F 
  F101     1.0000 0.00188  0.88612  0.36028  Biso   1.000  F 
  F102     1.0000 0.93817  0.91639  0.27853  Biso   1.000  F 
  B287     1.0000 0.00000  0.34640  0.65360  Biso   1.000  B 
  B288     1.0000 0.00000  0.40471  0.67046  Biso   1.000  B 
  B289     1.0000 0.00000  0.32954  0.59529  Biso   1.000  B 
  B290     1.0000 0.00000  0.29500  0.70500  Biso   1.000  B 
  B291     1.0000 0.00000  0.23249  0.68437  Biso   1.000  B 
  B292     1.0000 0.00000  0.22128  0.63046  Biso   1.000  B 
  C35      1.0000 0.99985  0.11236  0.70829  Biso   1.000  C 
  B293     1.0000 0.00000  0.18442  0.73248  Biso   1.000  B 
  B294     1.0000 0.00000  0.20500  0.79499  Biso   1.000  B 
  B295     1.0000 0.00000  0.26751  0.81558  Biso   1.000  B 
  B296     1.0000 0.00000  0.31563  0.76751  Biso   1.000  B 
  C36      1.0000 0.99659  0.38862  0.79418  Biso   1.000  C 
  B297     1.0000 0.00000  0.27872  0.86949  Biso   1.000  B 
  B298     1.0000 0.00000  0.17046  0.90470  Biso   1.000  B 
  B299     1.0000 0.00000  0.15360  0.84639  Biso   1.000  B 
  B300     1.0000 0.00000  0.09529  0.82953  Biso   1.000  B 
  F103     1.0000 0.99800  0.10650  0.64062  Biso   1.000  F 
  F104     1.0000 0.94404  0.08149  0.72970  Biso   1.000  F 
  F105     1.0000 0.05488  0.08196  0.72852  Biso   1.000  F 
  F106     1.0000 0.04968  0.42233  0.76947  Biso   1.000  F 
  F107     1.0000 0.00363  0.38714  0.85968  Biso   1.000  F 
  F108     1.0000 0.93788  0.41641  0.77927  Biso   1.000  F 
  B301     1.0000 0.50000  0.84640  0.65360  Biso   1.000  B 
  B302     1.0000 0.50000  0.90471  0.67046  Biso   1.000  B 
  B303     1.0000 0.50000  0.82954  0.59529  Biso   1.000  B 
  B304     1.0000 0.50000  0.79500  0.70500  Biso   1.000  B 
  B305     1.0000 0.50000  0.73249  0.68437  Biso   1.000  B 
  B306     1.0000 0.50000  0.72128  0.63046  Biso   1.000  B 
  C37      1.0000 0.49903  0.61237  0.70829  Biso   1.000  C 
  B307     1.0000 0.50000  0.68442  0.73248  Biso   1.000  B 
  B308     1.0000 0.50000  0.70500  0.79499  Biso   1.000  B 
  B309     1.0000 0.50000  0.76751  0.81558  Biso   1.000  B 
  B310     1.0000 0.50000  0.81563  0.76751  Biso   1.000  B 
  C38      1.0000 0.49640  0.88816  0.79471  Biso   1.000  C 
  B311     1.0000 0.50000  0.77872  0.86949  Biso   1.000  B 
  B312     1.0000 0.50000  0.67046  0.90470  Biso   1.000  B 
  B313     1.0000 0.50000  0.65360  0.84639  Biso   1.000  B 
  B314     1.0000 0.50000  0.59529  0.82953  Biso   1.000  B 
  F109     1.0000 0.49682  0.60648  0.64063  Biso   1.000  F 
  F110     1.0000 0.44322  0.58208  0.73005  Biso   1.000  F 
  F111     1.0000 0.55404  0.58138  0.72817  Biso   1.000  F 
  F112     1.0000 0.55126  0.92099  0.77303  Biso   1.000  F 
  F113     1.0000 0.49970  0.88530  0.86086  Biso   1.000  F 
  F114     1.0000 0.43903  0.91651  0.77710  Biso   1.000  F 
  B315     1.0000 0.50000  0.34640  0.15360  Biso   1.000  B 
  B316     1.0000 0.50000  0.40471  0.17046  Biso   1.000  B 
  B317     1.0000 0.50000  0.32954  0.09529  Biso   1.000  B 
  B318     1.0000 0.50000  0.29500  0.20500  Biso   1.000  B 
  B319     1.0000 0.50000  0.23249  0.18437  Biso   1.000  B 
  B320     1.0000 0.50000  0.22128  0.13046  Biso   1.000  B 
  C39      1.0000 0.49940  0.11236  0.20829  Biso   1.000  C 
  B321     1.0000 0.50000  0.18442  0.23249  Biso   1.000  B 
  B322     1.0000 0.50000  0.20500  0.29500  Biso   1.000  B 
  B323     1.0000 0.50000  0.26751  0.31558  Biso   1.000  B 
  B324     1.0000 0.50000  0.31563  0.26751  Biso   1.000  B 
  C40      1.0000 0.49663  0.38795  0.29493  Biso   1.000  C 
  B325     1.0000 0.50000  0.27872  0.36949  Biso   1.000  B 
  B326     1.0000 0.50000  0.17046  0.40470  Biso   1.000  B 
  B327     1.0000 0.50000  0.15360  0.34640  Biso   1.000  B 
  B328     1.0000 0.50000  0.09529  0.32954  Biso   1.000  B 
  F115     1.0000 0.49737  0.10647  0.14063  Biso   1.000  F 
  F116     1.0000 0.44358  0.08179  0.22989  Biso   1.000  F 
  F117     1.0000 0.55438  0.08160  0.22835  Biso   1.000  F 
  F118     1.0000 0.55279  0.41982  0.27548  Biso   1.000  F 
  F119     1.0000 0.49713  0.38471  0.36141  Biso   1.000  F 
  F120     1.0000 0.44051  0.41693  0.27503  Biso   1.000  F 
  B329     1.0000 0.00000  0.84640  0.84640  Biso   1.000  B 
  B330     1.0000 0.00000  0.90471  0.82954  Biso   1.000  B 
  B331     1.0000 0.00000  0.82954  0.90471  Biso   1.000  B 
  B332     1.0000 0.00000  0.79500  0.79500  Biso   1.000  B 
  B333     1.0000 0.00000  0.73249  0.81563  Biso   1.000  B 
  B334     1.0000 0.00000  0.72128  0.86954  Biso   1.000  B 
  C41      1.0000 0.99961  0.61228  0.79170  Biso   1.000  C 
  B335     1.0000 0.00000  0.68442  0.76752  Biso   1.000  B 
  B336     1.0000 0.00000  0.70500  0.70501  Biso   1.000  B 
  B337     1.0000 0.00000  0.76751  0.68442  Biso   1.000  B 
  B338     1.0000 0.00000  0.81563  0.73249  Biso   1.000  B 
  C42      1.0000 0.99482  0.88769  0.70534  Biso   1.000  C 
  B339     1.0000 0.00000  0.77872  0.63051  Biso   1.000  B 
  B340     1.0000 0.00000  0.67046  0.59530  Biso   1.000  B 
  B341     1.0000 0.00000  0.65360  0.65361  Biso   1.000  B 
  B342     1.0000 0.00000  0.59529  0.67047  Biso   1.000  B 
  F121     1.0000 0.99881  0.60648  0.85936  Biso   1.000  F 
  F122     1.0000 0.05390  0.58086  0.77115  Biso   1.000  F 
  F123     1.0000 0.94321  0.58206  0.77089  Biso   1.000  F 
  F124     1.0000 0.04972  0.91877  0.72372  Biso   1.000  F 
  F125     1.0000 0.94273  0.91968  0.72494  Biso   1.000  F 
  F126     1.0000 0.99897  0.88424  0.64172  Biso   1.000  F 
  B343     1.0000 0.00000  0.34640  0.34640  Biso   1.000  B 
  B344     1.0000 0.00000  0.40471  0.32954  Biso   1.000  B 
  B345     1.0000 0.00000  0.32954  0.40471  Biso   1.000  B 
  B346     1.0000 0.00000  0.29500  0.29500  Biso   1.000  B 
  B347     1.0000 0.00000  0.23249  0.31563  Biso   1.000  B 
  B348     1.0000 0.00000  0.22128  0.36954  Biso   1.000  B 
  C43      1.0000 0.00014  0.11228  0.29169  Biso   1.000  C 
  B349     1.0000 0.00000  0.18442  0.26751  Biso   1.000  B 
  B350     1.0000 0.00000  0.20500  0.20500  Biso   1.000  B 
  B351     1.0000 0.00000  0.26751  0.18442  Biso   1.000  B 
  B352     1.0000 0.00000  0.31563  0.23249  Biso   1.000  B 
  C44      1.0000 0.99756  0.38786  0.20558  Biso   1.000  C 
  B353     1.0000 0.00000  0.27872  0.13051  Biso   1.000  B 
  B354     1.0000 0.00000  0.17046  0.09530  Biso   1.000  B 
  B355     1.0000 0.00000  0.15360  0.15360  Biso   1.000  B 
  B356     1.0000 0.00000  0.09529  0.17046  Biso   1.000  B 
  F127     1.0000 0.99955  0.10650  0.35933  Biso   1.000  F 
  F128     1.0000 0.05448  0.08124  0.27093  Biso   1.000  F 
  F129     1.0000 0.94378  0.08164  0.27108  Biso   1.000  F 
  F130     1.0000 0.05477  0.41469  0.22559  Biso   1.000  F 
  F131     1.0000 0.94617  0.42076  0.22768  Biso   1.000  F 
  F132     1.0000 0.00175  0.38770  0.14095  Biso   1.000  F 
  B357     1.0000 0.50000  0.84640  0.34640  Biso   1.000  B 
  B358     1.0000 0.50000  0.90471  0.32954  Biso   1.000  B 
  B359     1.0000 0.50000  0.82954  0.40471  Biso   1.000  B 
  B360     1.0000 0.50000  0.79500  0.29500  Biso   1.000  B 
  B361     1.0000 0.50000  0.73249  0.31563  Biso   1.000  B 
  B362     1.0000 0.50000  0.72128  0.36954  Biso   1.000  B 
  C45      1.0000 0.50031  0.61227  0.29168  Biso   1.000  C 
  B363     1.0000 0.50000  0.68442  0.26751  Biso   1.000  B 
  B364     1.0000 0.50000  0.70500  0.20500  Biso   1.000  B 
  B365     1.0000 0.50000  0.76751  0.18442  Biso   1.000  B 
  B366     1.0000 0.50000  0.81563  0.23249  Biso   1.000  B 
  C46      1.0000 0.49654  0.88773  0.20556  Biso   1.000  C 
  B367     1.0000 0.50000  0.77872  0.13051  Biso   1.000  B 
  B368     1.0000 0.50000  0.67046  0.09530  Biso   1.000  B 
  B369     1.0000 0.50000  0.65360  0.15360  Biso   1.000  B 
  B370     1.0000 0.50000  0.59529  0.17046  Biso   1.000  B 
  F133     1.0000 0.49983  0.60650  0.35933  Biso   1.000  F 
  F134     1.0000 0.55466  0.58134  0.27085  Biso   1.000  F 
  F135     1.0000 0.44398  0.58152  0.27116  Biso   1.000  F 
  F136     1.0000 0.55331  0.91583  0.22400  Biso   1.000  F 
  F137     1.0000 0.44515  0.92066  0.22677  Biso   1.000  F 
  F138     1.0000 0.50007  0.88618  0.14156  Biso   1.000  F 
  B371     1.0000 0.50000  0.34640  0.84640  Biso   1.000  B 
  B372     1.0000 0.50000  0.40471  0.82954  Biso   1.000  B 
  B373     1.0000 0.50000  0.32954  0.90471  Biso   1.000  B 
  B374     1.0000 0.50000  0.29500  0.79500  Biso   1.000  B 
  B375     1.0000 0.50000  0.23249  0.81563  Biso   1.000  B 
  B376     1.0000 0.50000  0.22128  0.86954  Biso   1.000  B 
  C47      1.0000 0.49987  0.11228  0.79169  Biso   1.000  C 
  B377     1.0000 0.50000  0.18442  0.76752  Biso   1.000  B 
  B378     1.0000 0.50000  0.20500  0.70501  Biso   1.000  B 
  B379     1.0000 0.50000  0.26751  0.68442  Biso   1.000  B 
  B380     1.0000 0.50000  0.31563  0.73249  Biso   1.000  B 
  C48      1.0000 0.49526  0.38769  0.70542  Biso   1.000  C 
  B381     1.0000 0.50000  0.27872  0.63051  Biso   1.000  B 
  B382     1.0000 0.50000  0.17046  0.59530  Biso   1.000  B 
  B383     1.0000 0.50000  0.15360  0.65361  Biso   1.000  B 
  B384     1.0000 0.50000  0.09529  0.67047  Biso   1.000  B 
  F139     1.0000 0.49923  0.10648  0.85935  Biso   1.000  F 
  F140     1.0000 0.55420  0.08103  0.77105  Biso   1.000  F 
  F141     1.0000 0.44352  0.08186  0.77100  Biso   1.000  F 
  F142     1.0000 0.55069  0.41801  0.72364  Biso   1.000  F 
  F143     1.0000 0.44338  0.42009  0.72524  Biso   1.000  F 
  F144     1.0000 0.49932  0.38454  0.64178  Biso   1.000  F 
