data_image0
_cell_length_a       20.7004
_cell_length_b       20.7004
_cell_length_c       20.7004
_cell_angle_alpha    90
_cell_angle_beta     90
_cell_angle_gamma    90

_symmetry_space_group_name_H-M    "P 1"
_symmetry_int_tables_number       1

loop_
  _symmetry_equiv_pos_as_xyz
  'x, y, z'

loop_
  _atom_site_label
  _atom_site_occupancy
  _atom_site_fract_x
  _atom_site_fract_y
  _atom_site_fract_z
  _atom_site_thermal_displace_type
  _atom_site_B_iso_or_equiv
  _atom_site_type_symbol
  Zr1      1.0000 0.11989  0.00000  0.00000  Biso   1.000  Zr
  Zr2      1.0000 0.11989  0.50000  0.50000  Biso   1.000  Zr
  Zr3      1.0000 0.61989  0.00000  0.50000  Biso   1.000  Zr
  Zr4      1.0000 0.61989  0.50000  0.00000  Biso   1.000  Zr
  Zr5      1.0000 0.88011  0.00000  0.00000  Biso   1.000  Zr
  Zr6      1.0000 0.88011  0.50000  0.50000  Biso   1.000  Zr
  Zr7      1.0000 0.38011  0.00000  0.50000  Biso   1.000  Zr
  Zr8      1.0000 0.38011  0.50000  0.00000  Biso   1.000  Zr
  Zr9      1.0000 0.00000  0.11989  0.00000  Biso   1.000  Zr
  Zr10     1.0000 0.00000  0.61989  0.50000  Biso   1.000  Zr
  Zr11     1.0000 0.50000  0.11989  0.50000  Biso   1.000  Zr
  Zr12     1.0000 0.50000  0.61989  0.00000  Biso   1.000  Zr
  Zr13     1.0000 0.00000  0.88011  0.00000  Biso   1.000  Zr
  Zr14     1.0000 0.00000  0.38011  0.50000  Biso   1.000  Zr
  Zr15     1.0000 0.50000  0.88011  0.50000  Biso   1.000  Zr
  Zr16     1.0000 0.50000  0.38011  0.00000  Biso   1.000  Zr
  Zr17     1.0000 0.00000  0.00000  0.11989  Biso   1.000  Zr
  Zr18     1.0000 0.00000  0.50000  0.61989  Biso   1.000  Zr
  Zr19     1.0000 0.50000  0.00000  0.61989  Biso   1.000  Zr
  Zr20     1.0000 0.50000  0.50000  0.11989  Biso   1.000  Zr
  Zr21     1.0000 0.00000  0.00000  0.88011  Biso   1.000  Zr
  Zr22     1.0000 0.00000  0.50000  0.38011  Biso   1.000  Zr
  Zr23     1.0000 0.50000  0.00000  0.38011  Biso   1.000  Zr
  Zr24     1.0000 0.50000  0.50000  0.88011  Biso   1.000  Zr
  O1       1.0000 0.05610  0.44390  0.44390  Biso   1.000  O 
  O2       1.0000 0.55610  0.94390  0.44390  Biso   1.000  O 
  O3       1.0000 0.55610  0.44390  0.94390  Biso   1.000  O 
  O4       1.0000 0.44390  0.05610  0.44390  Biso   1.000  O 
  O5       1.0000 0.44390  0.55610  0.94390  Biso   1.000  O 
  O6       1.0000 0.94390  0.94390  0.05610  Biso   1.000  O 
  O7       1.0000 0.94390  0.44390  0.55610  Biso   1.000  O 
  O8       1.0000 0.05610  0.05610  0.05610  Biso   1.000  O 
  O9       1.0000 0.55610  0.55610  0.05610  Biso   1.000  O 
  O10      1.0000 0.94390  0.05610  0.05610  Biso   1.000  O 
  O11      1.0000 0.94390  0.55610  0.55610  Biso   1.000  O 
  O12      1.0000 0.44390  0.05610  0.55610  Biso   1.000  O 
  O13      1.0000 0.44390  0.55610  0.05610  Biso   1.000  O 
  O14      1.0000 0.05610  0.94390  0.05610  Biso   1.000  O 
  O15      1.0000 0.05610  0.44390  0.55610  Biso   1.000  O 
  O16      1.0000 0.55610  0.94390  0.55610  Biso   1.000  O 
  O17      1.0000 0.55610  0.44390  0.05610  Biso   1.000  O 
  O18      1.0000 0.94390  0.94390  0.94390  Biso   1.000  O 
  O19      1.0000 0.94390  0.44390  0.44390  Biso   1.000  O 
  O20      1.0000 0.44390  0.94390  0.44390  Biso   1.000  O 
  O21      1.0000 0.44390  0.44390  0.94390  Biso   1.000  O 
  O22      1.0000 0.05610  0.05610  0.94390  Biso   1.000  O 
  O23      1.0000 0.05610  0.55610  0.44390  Biso   1.000  O 
  O24      1.0000 0.55610  0.05610  0.44390  Biso   1.000  O 
  C1       1.0000 0.15360  0.00000  0.84640  Biso   1.000  C 
  O25      1.0000 0.17046  0.00000  0.90471  Biso   1.000  O 
  O26      1.0000 0.09529  0.00000  0.82954  Biso   1.000  O 
  C2       1.0000 0.20500  0.00000  0.79500  Biso   1.000  C 
  C3       1.0000 0.18437  0.00000  0.73249  Biso   1.000  C 
  H1       1.0000 0.13046  0.00000  0.72128  Biso   1.000  H 
  O27      1.0000 0.21660  0.00320  0.61727  Biso   1.000  O 
  C4       1.0000 0.23249  0.00000  0.68442  Biso   1.000  C 
  C5       1.0000 0.29500  0.00000  0.70500  Biso   1.000  C 
  C6       1.0000 0.31558  0.00000  0.76751  Biso   1.000  C 
  C7       1.0000 0.26751  0.00000  0.81563  Biso   1.000  C 
  H2       1.0000 0.27872  0.00000  0.86954  Biso   1.000  H 
  H3       1.0000 0.36949  0.00000  0.77872  Biso   1.000  H 
  O28      1.0000 0.40470  0.00000  0.67046  Biso   1.000  O 
  C8       1.0000 0.34640  0.00000  0.65360  Biso   1.000  C 
  O29      1.0000 0.32954  0.00000  0.59529  Biso   1.000  O 
  H4       1.0000 0.20901  0.04948  0.60624  Biso   1.000  H 
  C9       1.0000 0.15360  0.50000  0.34640  Biso   1.000  C 
  O30      1.0000 0.17046  0.50000  0.40471  Biso   1.000  O 
  O31      1.0000 0.09529  0.50000  0.32954  Biso   1.000  O 
  C10      1.0000 0.20500  0.50000  0.29500  Biso   1.000  C 
  C11      1.0000 0.18437  0.50000  0.23249  Biso   1.000  C 
  H5       1.0000 0.13046  0.50000  0.22128  Biso   1.000  H 
  O32      1.0000 0.21661  0.50320  0.11727  Biso   1.000  O 
  C12      1.0000 0.23249  0.50000  0.18442  Biso   1.000  C 
  C13      1.0000 0.29500  0.50000  0.20500  Biso   1.000  C 
  C14      1.0000 0.31558  0.50000  0.26751  Biso   1.000  C 
  C15      1.0000 0.26751  0.50000  0.31563  Biso   1.000  C 
  H6       1.0000 0.27872  0.50000  0.36954  Biso   1.000  H 
  H7       1.0000 0.36949  0.50000  0.27872  Biso   1.000  H 
  O33      1.0000 0.40470  0.50000  0.17046  Biso   1.000  O 
  C16      1.0000 0.34640  0.50000  0.15360  Biso   1.000  C 
  O34      1.0000 0.32954  0.50000  0.09529  Biso   1.000  O 
  H8       1.0000 0.20925  0.54954  0.10633  Biso   1.000  H 
  C17      1.0000 0.65360  0.00000  0.34640  Biso   1.000  C 
  O35      1.0000 0.67046  0.00000  0.40471  Biso   1.000  O 
  O36      1.0000 0.59529  0.00000  0.32954  Biso   1.000  O 
  C18      1.0000 0.70500  0.00000  0.29500  Biso   1.000  C 
  C19      1.0000 0.68437  0.00000  0.23249  Biso   1.000  C 
  H9       1.0000 0.63046  0.00000  0.22128  Biso   1.000  H 
  O37      1.0000 0.71662  0.00321  0.11727  Biso   1.000  O 
  C20      1.0000 0.73248  0.00000  0.18442  Biso   1.000  C 
  C21      1.0000 0.79499  0.00000  0.20500  Biso   1.000  C 
  C22      1.0000 0.81558  0.00000  0.26751  Biso   1.000  C 
  C23      1.0000 0.76751  0.00000  0.31563  Biso   1.000  C 
  H10      1.0000 0.77872  0.00000  0.36954  Biso   1.000  H 
  H11      1.0000 0.86949  0.00000  0.27872  Biso   1.000  H 
  O38      1.0000 0.90470  0.00000  0.17046  Biso   1.000  O 
  C24      1.0000 0.84639  0.00000  0.15360  Biso   1.000  C 
  O39      1.0000 0.82953  0.00000  0.09529  Biso   1.000  O 
  H12      1.0000 0.70957  0.04964  0.10646  Biso   1.000  H 
  C25      1.0000 0.65360  0.50000  0.84640  Biso   1.000  C 
  O40      1.0000 0.67046  0.50000  0.90471  Biso   1.000  O 
  O41      1.0000 0.59529  0.50000  0.82954  Biso   1.000  O 
  C26      1.0000 0.70500  0.50000  0.79500  Biso   1.000  C 
  C27      1.0000 0.68437  0.50000  0.73249  Biso   1.000  C 
  H13      1.0000 0.63046  0.50000  0.72128  Biso   1.000  H 
  O42      1.0000 0.71662  0.50321  0.61727  Biso   1.000  O 
  C28      1.0000 0.73248  0.50000  0.68442  Biso   1.000  C 
  C29      1.0000 0.79499  0.50000  0.70500  Biso   1.000  C 
  C30      1.0000 0.81558  0.50000  0.76751  Biso   1.000  C 
  C31      1.0000 0.76751  0.50000  0.81563  Biso   1.000  C 
  H14      1.0000 0.77872  0.50000  0.86954  Biso   1.000  H 
  H15      1.0000 0.86949  0.50000  0.77872  Biso   1.000  H 
  O43      1.0000 0.90470  0.50000  0.67046  Biso   1.000  O 
  C32      1.0000 0.84639  0.50000  0.65360  Biso   1.000  C 
  O44      1.0000 0.82953  0.50000  0.59529  Biso   1.000  O 
  H16      1.0000 0.70962  0.54965  0.60649  Biso   1.000  H 
  C33      1.0000 0.84640  0.00000  0.84640  Biso   1.000  C 
  O45      1.0000 0.82954  0.00000  0.90471  Biso   1.000  O 
  O46      1.0000 0.90471  0.00000  0.82954  Biso   1.000  O 
  C34      1.0000 0.79500  0.00000  0.79500  Biso   1.000  C 
  C35      1.0000 0.81563  0.00000  0.73249  Biso   1.000  C 
  H17      1.0000 0.86954  0.00000  0.72128  Biso   1.000  H 
  O47      1.0000 0.78234  0.00360  0.61743  Biso   1.000  O 
  C36      1.0000 0.76752  0.00000  0.68442  Biso   1.000  C 
  C37      1.0000 0.70501  0.00000  0.70500  Biso   1.000  C 
  C38      1.0000 0.68442  0.00000  0.76751  Biso   1.000  C 
  C39      1.0000 0.73249  0.00000  0.81563  Biso   1.000  C 
  H18      1.0000 0.72128  0.00000  0.86954  Biso   1.000  H 
  H19      1.0000 0.63051  0.00000  0.77872  Biso   1.000  H 
  O48      1.0000 0.59530  0.00000  0.67046  Biso   1.000  O 
  C40      1.0000 0.65361  0.00000  0.65360  Biso   1.000  C 
  O49      1.0000 0.67047  0.00000  0.59529  Biso   1.000  O 
  H20      1.0000 0.77977  0.05075  0.60751  Biso   1.000  H 
  C41      1.0000 0.84640  0.50000  0.34640  Biso   1.000  C 
  O50      1.0000 0.82954  0.50000  0.40471  Biso   1.000  O 
  O51      1.0000 0.90471  0.50000  0.32954  Biso   1.000  O 
  C42      1.0000 0.79500  0.50000  0.29500  Biso   1.000  C 
  C43      1.0000 0.81563  0.50000  0.23249  Biso   1.000  C 
  H21      1.0000 0.86954  0.50000  0.22128  Biso   1.000  H 
  O52      1.0000 0.78220  0.50361  0.11738  Biso   1.000  O 
  C44      1.0000 0.76752  0.50000  0.18442  Biso   1.000  C 
  C45      1.0000 0.70501  0.50000  0.20500  Biso   1.000  C 
  C46      1.0000 0.68442  0.50000  0.26751  Biso   1.000  C 
  C47      1.0000 0.73249  0.50000  0.31563  Biso   1.000  C 
  H22      1.0000 0.72128  0.50000  0.36954  Biso   1.000  H 
  H23      1.0000 0.63051  0.50000  0.27872  Biso   1.000  H 
  O53      1.0000 0.59530  0.50000  0.17046  Biso   1.000  O 
  C48      1.0000 0.65361  0.50000  0.15360  Biso   1.000  C 
  O54      1.0000 0.67047  0.50000  0.09529  Biso   1.000  O 
  H24      1.0000 0.77823  0.55060  0.10733  Biso   1.000  H 
  C49      1.0000 0.34640  0.00000  0.34640  Biso   1.000  C 
  O55      1.0000 0.32954  0.00000  0.40471  Biso   1.000  O 
  O56      1.0000 0.40471  0.00000  0.32954  Biso   1.000  O 
  C50      1.0000 0.29500  0.00000  0.29500  Biso   1.000  C 
  C51      1.0000 0.31563  0.00000  0.23249  Biso   1.000  C 
  H25      1.0000 0.36954  0.00000  0.22128  Biso   1.000  H 
  O57      1.0000 0.28199  0.00362  0.11728  Biso   1.000  O 
  C52      1.0000 0.26751  0.00000  0.18442  Biso   1.000  C 
  C53      1.0000 0.20500  0.00000  0.20500  Biso   1.000  C 
  C54      1.0000 0.18442  0.00000  0.26751  Biso   1.000  C 
  C55      1.0000 0.23249  0.00000  0.31563  Biso   1.000  C 
  H26      1.0000 0.22128  0.00000  0.36954  Biso   1.000  H 
  H27      1.0000 0.13051  0.00000  0.27872  Biso   1.000  H 
  O58      1.0000 0.09530  0.00000  0.17046  Biso   1.000  O 
  C56      1.0000 0.15360  0.00000  0.15360  Biso   1.000  C 
  O59      1.0000 0.17046  0.00000  0.09529  Biso   1.000  O 
  H28      1.0000 0.27549  0.05026  0.10720  Biso   1.000  H 
  C57      1.0000 0.34640  0.50000  0.84640  Biso   1.000  C 
  O60      1.0000 0.32954  0.50000  0.90471  Biso   1.000  O 
  O61      1.0000 0.40471  0.50000  0.82954  Biso   1.000  O 
  C58      1.0000 0.29500  0.50000  0.79500  Biso   1.000  C 
  C59      1.0000 0.31563  0.50000  0.73249  Biso   1.000  C 
  H29      1.0000 0.36954  0.50000  0.72128  Biso   1.000  H 
  O62      1.0000 0.28249  0.50360  0.61748  Biso   1.000  O 
  C60      1.0000 0.26751  0.50000  0.68442  Biso   1.000  C 
  C61      1.0000 0.20500  0.50000  0.70500  Biso   1.000  C 
  C62      1.0000 0.18442  0.50000  0.76751  Biso   1.000  C 
  C63      1.0000 0.23249  0.50000  0.81563  Biso   1.000  C 
  H30      1.0000 0.22128  0.50000  0.86954  Biso   1.000  H 
  H31      1.0000 0.13051  0.50000  0.77872  Biso   1.000  H 
  O63      1.0000 0.09530  0.50000  0.67046  Biso   1.000  O 
  C64      1.0000 0.15360  0.50000  0.65360  Biso   1.000  C 
  O64      1.0000 0.17046  0.50000  0.59529  Biso   1.000  O 
  H32      1.0000 0.28134  0.55085  0.60775  Biso   1.000  H 
  C65      1.0000 0.84640  0.15360  0.00000  Biso   1.000  C 
  O65      1.0000 0.90471  0.17046  0.00000  Biso   1.000  O 
  O66      1.0000 0.82954  0.09529  0.00000  Biso   1.000  O 
  C66      1.0000 0.79500  0.20500  0.00000  Biso   1.000  C 
  C67      1.0000 0.73249  0.18437  0.00000  Biso   1.000  C 
  H33      1.0000 0.72128  0.13046  0.00000  Biso   1.000  H 
  O67      1.0000 0.61727  0.21661  0.00321  Biso   1.000  O 
  C68      1.0000 0.68442  0.23249  0.00000  Biso   1.000  C 
  C69      1.0000 0.70500  0.29500  0.00000  Biso   1.000  C 
  C70      1.0000 0.76751  0.31558  0.00000  Biso   1.000  C 
  C71      1.0000 0.81563  0.26751  0.00000  Biso   1.000  C 
  H34      1.0000 0.86954  0.27872  0.00000  Biso   1.000  H 
  H35      1.0000 0.77872  0.36949  0.00000  Biso   1.000  H 
  O68      1.0000 0.67046  0.40470  0.00000  Biso   1.000  O 
  C72      1.0000 0.65360  0.34640  0.00000  Biso   1.000  C 
  O69      1.0000 0.59529  0.32954  0.00000  Biso   1.000  O 
  H36      1.0000 0.60637  0.20930  0.04957  Biso   1.000  H 
  C73      1.0000 0.84640  0.65360  0.50000  Biso   1.000  C 
  O70      1.0000 0.90471  0.67046  0.50000  Biso   1.000  O 
  O71      1.0000 0.82954  0.59529  0.50000  Biso   1.000  O 
  C74      1.0000 0.79500  0.70500  0.50000  Biso   1.000  C 
  C75      1.0000 0.73249  0.68437  0.50000  Biso   1.000  C 
  H37      1.0000 0.72128  0.63046  0.50000  Biso   1.000  H 
  O72      1.0000 0.61727  0.71662  0.50321  Biso   1.000  O 
  C76      1.0000 0.68442  0.73248  0.50000  Biso   1.000  C 
  C77      1.0000 0.70500  0.79499  0.50000  Biso   1.000  C 
  C78      1.0000 0.76751  0.81558  0.50000  Biso   1.000  C 
  C79      1.0000 0.81563  0.76751  0.50000  Biso   1.000  C 
  H38      1.0000 0.86954  0.77872  0.50000  Biso   1.000  H 
  H39      1.0000 0.77872  0.86949  0.50000  Biso   1.000  H 
  O73      1.0000 0.67046  0.90470  0.50000  Biso   1.000  O 
  C80      1.0000 0.65360  0.84639  0.50000  Biso   1.000  C 
  O74      1.0000 0.59529  0.82953  0.50000  Biso   1.000  O 
  H40      1.0000 0.60648  0.70960  0.54965  Biso   1.000  H 
  C81      1.0000 0.34640  0.15360  0.50000  Biso   1.000  C 
  O75      1.0000 0.40471  0.17046  0.50000  Biso   1.000  O 
  O76      1.0000 0.32954  0.09529  0.50000  Biso   1.000  O 
  C82      1.0000 0.29500  0.20500  0.50000  Biso   1.000  C 
  C83      1.0000 0.23249  0.18437  0.50000  Biso   1.000  C 
  H41      1.0000 0.22128  0.13046  0.50000  Biso   1.000  H 
  O77      1.0000 0.11727  0.21662  0.50321  Biso   1.000  O 
  C84      1.0000 0.18442  0.23249  0.50000  Biso   1.000  C 
  C85      1.0000 0.20500  0.29500  0.50000  Biso   1.000  C 
  C86      1.0000 0.26751  0.31558  0.50000  Biso   1.000  C 
  C87      1.0000 0.31563  0.26751  0.50000  Biso   1.000  C 
  H42      1.0000 0.36954  0.27872  0.50000  Biso   1.000  H 
  H43      1.0000 0.27872  0.36949  0.50000  Biso   1.000  H 
  O78      1.0000 0.17046  0.40470  0.50000  Biso   1.000  O 
  C88      1.0000 0.15360  0.34640  0.50000  Biso   1.000  C 
  O79      1.0000 0.09529  0.32954  0.50000  Biso   1.000  O 
  H44      1.0000 0.10645  0.20945  0.54961  Biso   1.000  H 
  C89      1.0000 0.34640  0.65360  0.00000  Biso   1.000  C 
  O80      1.0000 0.40471  0.67046  0.00000  Biso   1.000  O 
  O81      1.0000 0.32954  0.59529  0.00000  Biso   1.000  O 
  C90      1.0000 0.29500  0.70500  0.00000  Biso   1.000  C 
  C91      1.0000 0.23249  0.68437  0.00000  Biso   1.000  C 
  H45      1.0000 0.22128  0.63046  0.00000  Biso   1.000  H 
  O82      1.0000 0.11727  0.71660  0.00320  Biso   1.000  O 
  C92      1.0000 0.18442  0.73248  0.00000  Biso   1.000  C 
  C93      1.0000 0.20500  0.79499  0.00000  Biso   1.000  C 
  C94      1.0000 0.26751  0.81558  0.00000  Biso   1.000  C 
  C95      1.0000 0.31563  0.76751  0.00000  Biso   1.000  C 
  H46      1.0000 0.36954  0.77872  0.00000  Biso   1.000  H 
  H47      1.0000 0.27872  0.86949  0.00000  Biso   1.000  H 
  O83      1.0000 0.17046  0.90470  0.00000  Biso   1.000  O 
  C96      1.0000 0.15360  0.84639  0.00000  Biso   1.000  C 
  O84      1.0000 0.09529  0.82953  0.00000  Biso   1.000  O 
  H48      1.0000 0.10627  0.70908  0.04950  Biso   1.000  H 
  C97      1.0000 0.84640  0.84640  0.00000  Biso   1.000  C 
  O85      1.0000 0.90471  0.82954  0.00000  Biso   1.000  O 
  O86      1.0000 0.82954  0.90471  0.00000  Biso   1.000  O 
  C98      1.0000 0.79500  0.79500  0.00000  Biso   1.000  C 
  C99      1.0000 0.73249  0.81563  0.00000  Biso   1.000  C 
  H49      1.0000 0.72128  0.86954  0.00000  Biso   1.000  H 
  O87      1.0000 0.61718  0.78188  0.00361  Biso   1.000  O 
  C100     1.0000 0.68442  0.76752  0.00000  Biso   1.000  C 
  C101     1.0000 0.70500  0.70501  0.00000  Biso   1.000  C 
  C102     1.0000 0.76751  0.68442  0.00000  Biso   1.000  C 
  C103     1.0000 0.81563  0.73249  0.00000  Biso   1.000  C 
  H50      1.0000 0.86954  0.72128  0.00000  Biso   1.000  H 
  H51      1.0000 0.77872  0.63051  0.00000  Biso   1.000  H 
  O88      1.0000 0.67046  0.59530  0.00000  Biso   1.000  O 
  C104     1.0000 0.65360  0.65361  0.00000  Biso   1.000  C 
  O89      1.0000 0.59529  0.67047  0.00000  Biso   1.000  O 
  H52      1.0000 0.60738  0.77360  0.05003  Biso   1.000  H 
  C105     1.0000 0.84640  0.34640  0.50000  Biso   1.000  C 
  O90      1.0000 0.90471  0.32954  0.50000  Biso   1.000  O 
  O91      1.0000 0.82954  0.40471  0.50000  Biso   1.000  O 
  C106     1.0000 0.79500  0.29500  0.50000  Biso   1.000  C 
  C107     1.0000 0.73249  0.31563  0.50000  Biso   1.000  C 
  H53      1.0000 0.72128  0.36954  0.50000  Biso   1.000  H 
  O92      1.0000 0.61739  0.28224  0.50360  Biso   1.000  O 
  C108     1.0000 0.68442  0.26751  0.50000  Biso   1.000  C 
  C109     1.0000 0.70500  0.20500  0.50000  Biso   1.000  C 
  C110     1.0000 0.76751  0.18442  0.50000  Biso   1.000  C 
  C111     1.0000 0.81563  0.23249  0.50000  Biso   1.000  C 
  H54      1.0000 0.86954  0.22128  0.50000  Biso   1.000  H 
  H55      1.0000 0.77872  0.13051  0.50000  Biso   1.000  H 
  O93      1.0000 0.67046  0.09530  0.50000  Biso   1.000  O 
  C112     1.0000 0.65360  0.15360  0.50000  Biso   1.000  C 
  O94      1.0000 0.59529  0.17046  0.50000  Biso   1.000  O 
  H56      1.0000 0.60737  0.27866  0.55065  Biso   1.000  H 
  C113     1.0000 0.34640  0.84640  0.50000  Biso   1.000  C 
  O95      1.0000 0.40471  0.82954  0.50000  Biso   1.000  O 
  O96      1.0000 0.32954  0.90471  0.50000  Biso   1.000  O 
  C114     1.0000 0.29500  0.79500  0.50000  Biso   1.000  C 
  C115     1.0000 0.23249  0.81563  0.50000  Biso   1.000  C 
  H57      1.0000 0.22128  0.86954  0.50000  Biso   1.000  H 
  O97      1.0000 0.11745  0.78242  0.50360  Biso   1.000  O 
  C116     1.0000 0.18442  0.76752  0.50000  Biso   1.000  C 
  C117     1.0000 0.20500  0.70501  0.50000  Biso   1.000  C 
  C118     1.0000 0.26751  0.68442  0.50000  Biso   1.000  C 
  C119     1.0000 0.31563  0.73249  0.50000  Biso   1.000  C 
  H58      1.0000 0.36954  0.72128  0.50000  Biso   1.000  H 
  H59      1.0000 0.27872  0.63051  0.50000  Biso   1.000  H 
  O98      1.0000 0.17046  0.59530  0.50000  Biso   1.000  O 
  C120     1.0000 0.15360  0.65361  0.50000  Biso   1.000  C 
  O99      1.0000 0.09529  0.67047  0.50000  Biso   1.000  O 
  H60      1.0000 0.10764  0.78063  0.55081  Biso   1.000  H 
  C121     1.0000 0.34640  0.34640  0.00000  Biso   1.000  C 
  O100     1.0000 0.40471  0.32954  0.00000  Biso   1.000  O 
  O101     1.0000 0.32954  0.40471  0.00000  Biso   1.000  O 
  C122     1.0000 0.29500  0.29500  0.00000  Biso   1.000  C 
  C123     1.0000 0.23249  0.31563  0.00000  Biso   1.000  C 
  H61      1.0000 0.22128  0.36954  0.00000  Biso   1.000  H 
  O102     1.0000 0.11728  0.28199  0.00362  Biso   1.000  O 
  C124     1.0000 0.18442  0.26751  0.00000  Biso   1.000  C 
  C125     1.0000 0.20500  0.20500  0.00000  Biso   1.000  C 
  C126     1.0000 0.26751  0.18442  0.00000  Biso   1.000  C 
  C127     1.0000 0.31563  0.23249  0.00000  Biso   1.000  C 
  H62      1.0000 0.36954  0.22128  0.00000  Biso   1.000  H 
  H63      1.0000 0.27872  0.13051  0.00000  Biso   1.000  H 
  O103     1.0000 0.17046  0.09530  0.00000  Biso   1.000  O 
  C128     1.0000 0.15360  0.15360  0.00000  Biso   1.000  C 
  O104     1.0000 0.09529  0.17046  0.00000  Biso   1.000  O 
  H64      1.0000 0.10720  0.27536  0.05025  Biso   1.000  H 
  C129     1.0000 0.00000  0.84640  0.15360  Biso   1.000  C 
  O105     1.0000 0.00000  0.90471  0.17046  Biso   1.000  O 
  O106     1.0000 0.00000  0.82954  0.09529  Biso   1.000  O 
  C130     1.0000 0.00000  0.79500  0.20500  Biso   1.000  C 
  C131     1.0000 0.00000  0.73249  0.18437  Biso   1.000  C 
  H65      1.0000 0.00000  0.72128  0.13046  Biso   1.000  H 
  O107     1.0000 0.00320  0.61727  0.21661  Biso   1.000  O 
  C132     1.0000 0.00000  0.68442  0.23249  Biso   1.000  C 
  C133     1.0000 0.00000  0.70500  0.29500  Biso   1.000  C 
  C134     1.0000 0.00000  0.76751  0.31558  Biso   1.000  C 
  C135     1.0000 0.00000  0.81563  0.26751  Biso   1.000  C 
  H66      1.0000 0.00000  0.86954  0.27872  Biso   1.000  H 
  H67      1.0000 0.00000  0.77872  0.36949  Biso   1.000  H 
  O108     1.0000 0.00000  0.67046  0.40470  Biso   1.000  O 
  C136     1.0000 0.00000  0.65360  0.34640  Biso   1.000  C 
  O109     1.0000 0.00000  0.59529  0.32954  Biso   1.000  O 
  H68      1.0000 0.04954  0.60633  0.20925  Biso   1.000  H 
  C137     1.0000 0.00000  0.34640  0.65360  Biso   1.000  C 
  O110     1.0000 0.00000  0.40471  0.67046  Biso   1.000  O 
  O111     1.0000 0.00000  0.32954  0.59529  Biso   1.000  O 
  C138     1.0000 0.00000  0.29500  0.70500  Biso   1.000  C 
  C139     1.0000 0.00000  0.23249  0.68437  Biso   1.000  C 
  H69      1.0000 0.00000  0.22128  0.63046  Biso   1.000  H 
  O112     1.0000 0.00321  0.11727  0.71661  Biso   1.000  O 
  C140     1.0000 0.00000  0.18442  0.73248  Biso   1.000  C 
  C141     1.0000 0.00000  0.20500  0.79499  Biso   1.000  C 
  C142     1.0000 0.00000  0.26751  0.81558  Biso   1.000  C 
  C143     1.0000 0.00000  0.31563  0.76751  Biso   1.000  C 
  H70      1.0000 0.00000  0.36954  0.77872  Biso   1.000  H 
  H71      1.0000 0.00000  0.27872  0.86949  Biso   1.000  H 
  O113     1.0000 0.00000  0.17046  0.90470  Biso   1.000  O 
  C144     1.0000 0.00000  0.15360  0.84639  Biso   1.000  C 
  O114     1.0000 0.00000  0.09529  0.82953  Biso   1.000  O 
  H72      1.0000 0.04954  0.10630  0.70927  Biso   1.000  H 
  C145     1.0000 0.50000  0.84640  0.65360  Biso   1.000  C 
  O115     1.0000 0.50000  0.90471  0.67046  Biso   1.000  O 
  O116     1.0000 0.50000  0.82954  0.59529  Biso   1.000  O 
  C146     1.0000 0.50000  0.79500  0.70500  Biso   1.000  C 
  C147     1.0000 0.50000  0.73249  0.68437  Biso   1.000  C 
  H73      1.0000 0.50000  0.72128  0.63046  Biso   1.000  H 
  O117     1.0000 0.50321  0.61727  0.71662  Biso   1.000  O 
  C148     1.0000 0.50000  0.68442  0.73248  Biso   1.000  C 
  C149     1.0000 0.50000  0.70500  0.79499  Biso   1.000  C 
  C150     1.0000 0.50000  0.76751  0.81558  Biso   1.000  C 
  C151     1.0000 0.50000  0.81563  0.76751  Biso   1.000  C 
  H74      1.0000 0.50000  0.86954  0.77872  Biso   1.000  H 
  H75      1.0000 0.50000  0.77872  0.86949  Biso   1.000  H 
  O118     1.0000 0.50000  0.67046  0.90470  Biso   1.000  O 
  C152     1.0000 0.50000  0.65360  0.84639  Biso   1.000  C 
  O119     1.0000 0.50000  0.59529  0.82953  Biso   1.000  O 
  H76      1.0000 0.54962  0.60643  0.70950  Biso   1.000  H 
  C153     1.0000 0.50000  0.34640  0.15360  Biso   1.000  C 
  O120     1.0000 0.50000  0.40471  0.17046  Biso   1.000  O 
  O121     1.0000 0.50000  0.32954  0.09529  Biso   1.000  O 
  C154     1.0000 0.50000  0.29500  0.20500  Biso   1.000  C 
  C155     1.0000 0.50000  0.23249  0.18437  Biso   1.000  C 
  H77      1.0000 0.50000  0.22128  0.13046  Biso   1.000  H 
  O122     1.0000 0.50320  0.11727  0.21661  Biso   1.000  O 
  C156     1.0000 0.50000  0.18442  0.23249  Biso   1.000  C 
  C157     1.0000 0.50000  0.20500  0.29500  Biso   1.000  C 
  C158     1.0000 0.50000  0.26751  0.31558  Biso   1.000  C 
  C159     1.0000 0.50000  0.31563  0.26751  Biso   1.000  C 
  H78      1.0000 0.50000  0.36954  0.27872  Biso   1.000  H 
  H79      1.0000 0.50000  0.27872  0.36949  Biso   1.000  H 
  O123     1.0000 0.50000  0.17046  0.40470  Biso   1.000  O 
  C160     1.0000 0.50000  0.15360  0.34640  Biso   1.000  C 
  O124     1.0000 0.50000  0.09529  0.32954  Biso   1.000  O 
  H80      1.0000 0.54956  0.10638  0.20928  Biso   1.000  H 
  C161     1.0000 0.00000  0.84640  0.84640  Biso   1.000  C 
  O125     1.0000 0.00000  0.90471  0.82954  Biso   1.000  O 
  O126     1.0000 0.00000  0.82954  0.90471  Biso   1.000  O 
  C162     1.0000 0.00000  0.79500  0.79500  Biso   1.000  C 
  C163     1.0000 0.00000  0.73249  0.81563  Biso   1.000  C 
  H81      1.0000 0.00000  0.72128  0.86954  Biso   1.000  H 
  O127     1.0000 0.00360  0.61739  0.78224  Biso   1.000  O 
  C164     1.0000 0.00000  0.68442  0.76752  Biso   1.000  C 
  C165     1.0000 0.00000  0.70500  0.70501  Biso   1.000  C 
  C166     1.0000 0.00000  0.76751  0.68442  Biso   1.000  C 
  C167     1.0000 0.00000  0.81563  0.73249  Biso   1.000  C 
  H82      1.0000 0.00000  0.86954  0.72128  Biso   1.000  H 
  H83      1.0000 0.00000  0.77872  0.63051  Biso   1.000  H 
  O128     1.0000 0.00000  0.67046  0.59530  Biso   1.000  O 
  C168     1.0000 0.00000  0.65360  0.65361  Biso   1.000  C 
  O129     1.0000 0.00000  0.59529  0.67047  Biso   1.000  O 
  H84      1.0000 0.05065  0.60737  0.77868  Biso   1.000  H 
  C169     1.0000 0.00000  0.34640  0.34640  Biso   1.000  C 
  O130     1.0000 0.00000  0.40471  0.32954  Biso   1.000  O 
  O131     1.0000 0.00000  0.32954  0.40471  Biso   1.000  O 
  C170     1.0000 0.00000  0.29500  0.29500  Biso   1.000  C 
  C171     1.0000 0.00000  0.23249  0.31563  Biso   1.000  C 
  H85      1.0000 0.00000  0.22128  0.36954  Biso   1.000  H 
  O132     1.0000 0.00362  0.11728  0.28199  Biso   1.000  O 
  C172     1.0000 0.00000  0.18442  0.26751  Biso   1.000  C 
  C173     1.0000 0.00000  0.20500  0.20500  Biso   1.000  C 
  C174     1.0000 0.00000  0.26751  0.18442  Biso   1.000  C 
  C175     1.0000 0.00000  0.31563  0.23249  Biso   1.000  C 
  H86      1.0000 0.00000  0.36954  0.22128  Biso   1.000  H 
  H87      1.0000 0.00000  0.27872  0.13051  Biso   1.000  H 
  O133     1.0000 0.00000  0.17046  0.09530  Biso   1.000  O 
  C176     1.0000 0.00000  0.15360  0.15360  Biso   1.000  C 
  O134     1.0000 0.00000  0.09529  0.17046  Biso   1.000  O 
  H88      1.0000 0.05025  0.10720  0.27538  Biso   1.000  H 
  C177     1.0000 0.50000  0.84640  0.34640  Biso   1.000  C 
  O135     1.0000 0.50000  0.90471  0.32954  Biso   1.000  O 
  O136     1.0000 0.50000  0.82954  0.40471  Biso   1.000  O 
  C178     1.0000 0.50000  0.79500  0.29500  Biso   1.000  C 
  C179     1.0000 0.50000  0.73249  0.31563  Biso   1.000  C 
  H89      1.0000 0.50000  0.72128  0.36954  Biso   1.000  H 
  O137     1.0000 0.50362  0.61727  0.28198  Biso   1.000  O 
  C180     1.0000 0.50000  0.68442  0.26751  Biso   1.000  C 
  C181     1.0000 0.50000  0.70500  0.20500  Biso   1.000  C 
  C182     1.0000 0.50000  0.76751  0.18442  Biso   1.000  C 
  C183     1.0000 0.50000  0.81563  0.23249  Biso   1.000  C 
  H90      1.0000 0.50000  0.86954  0.22128  Biso   1.000  H 
  H91      1.0000 0.50000  0.77872  0.13051  Biso   1.000  H 
  O138     1.0000 0.50000  0.67046  0.09530  Biso   1.000  O 
  C184     1.0000 0.50000  0.65360  0.15360  Biso   1.000  C 
  O139     1.0000 0.50000  0.59529  0.17046  Biso   1.000  O 
  H92      1.0000 0.55024  0.60720  0.27532  Biso   1.000  H 
  C185     1.0000 0.50000  0.34640  0.84640  Biso   1.000  C 
  O140     1.0000 0.50000  0.40471  0.82954  Biso   1.000  O 
  O141     1.0000 0.50000  0.32954  0.90471  Biso   1.000  O 
  C186     1.0000 0.50000  0.29500  0.79500  Biso   1.000  C 
  C187     1.0000 0.50000  0.23249  0.81563  Biso   1.000  C 
  H93      1.0000 0.50000  0.22128  0.86954  Biso   1.000  H 
  O142     1.0000 0.50361  0.11738  0.78221  Biso   1.000  O 
  C188     1.0000 0.50000  0.18442  0.76752  Biso   1.000  C 
  C189     1.0000 0.50000  0.20500  0.70501  Biso   1.000  C 
  C190     1.0000 0.50000  0.26751  0.68442  Biso   1.000  C 
  C191     1.0000 0.50000  0.31563  0.73249  Biso   1.000  C 
  H94      1.0000 0.50000  0.36954  0.72128  Biso   1.000  H 
  H95      1.0000 0.50000  0.27872  0.63051  Biso   1.000  H 
  O143     1.0000 0.50000  0.17046  0.59530  Biso   1.000  O 
  C192     1.0000 0.50000  0.15360  0.65361  Biso   1.000  C 
  O144     1.0000 0.50000  0.09529  0.67047  Biso   1.000  O 
  H96      1.0000 0.55062  0.10735  0.77839  Biso   1.000  H 
