data_image0
_cell_length_a       20.7004
_cell_length_b       20.7004
_cell_length_c       20.7004
_cell_angle_alpha    90
_cell_angle_beta     90
_cell_angle_gamma    90

_symmetry_space_group_name_H-M    "P 1"
_symmetry_int_tables_number       1

loop_
  _symmetry_equiv_pos_as_xyz
  'x, y, z'

loop_
  _atom_site_label
  _atom_site_occupancy
  _atom_site_fract_x
  _atom_site_fract_y
  _atom_site_fract_z
  _atom_site_thermal_displace_type
  _atom_site_B_iso_or_equiv
  _atom_site_type_symbol
  Zr1      1.0000 0.11989  0.00000  0.00000  Biso   1.000  Zr
  Zr2      1.0000 0.11989  0.50000  0.50000  Biso   1.000  Zr
  Zr3      1.0000 0.61989  0.00000  0.50000  Biso   1.000  Zr
  Zr4      1.0000 0.61989  0.50000  0.00000  Biso   1.000  Zr
  Zr5      1.0000 0.88011  0.00000  0.00000  Biso   1.000  Zr
  Zr6      1.0000 0.88011  0.50000  0.50000  Biso   1.000  Zr
  Zr7      1.0000 0.38011  0.00000  0.50000  Biso   1.000  Zr
  Zr8      1.0000 0.38011  0.50000  0.00000  Biso   1.000  Zr
  Zr9      1.0000 0.00000  0.11989  0.00000  Biso   1.000  Zr
  Zr10     1.0000 0.00000  0.61989  0.50000  Biso   1.000  Zr
  Zr11     1.0000 0.50000  0.11989  0.50000  Biso   1.000  Zr
  Zr12     1.0000 0.50000  0.61989  0.00000  Biso   1.000  Zr
  Zr13     1.0000 0.00000  0.88011  0.00000  Biso   1.000  Zr
  Zr14     1.0000 0.00000  0.38011  0.50000  Biso   1.000  Zr
  Zr15     1.0000 0.50000  0.88011  0.50000  Biso   1.000  Zr
  Zr16     1.0000 0.50000  0.38011  0.00000  Biso   1.000  Zr
  Zr17     1.0000 0.00000  0.00000  0.11989  Biso   1.000  Zr
  Zr18     1.0000 0.00000  0.50000  0.61989  Biso   1.000  Zr
  Zr19     1.0000 0.50000  0.00000  0.61989  Biso   1.000  Zr
  Zr20     1.0000 0.50000  0.50000  0.11989  Biso   1.000  Zr
  Zr21     1.0000 0.00000  0.00000  0.88011  Biso   1.000  Zr
  Zr22     1.0000 0.00000  0.50000  0.38011  Biso   1.000  Zr
  Zr23     1.0000 0.50000  0.00000  0.38011  Biso   1.000  Zr
  Zr24     1.0000 0.50000  0.50000  0.88011  Biso   1.000  Zr
  O1       1.0000 0.05610  0.44390  0.44390  Biso   1.000  O 
  O2       1.0000 0.55610  0.94390  0.44390  Biso   1.000  O 
  O3       1.0000 0.55610  0.44390  0.94390  Biso   1.000  O 
  O4       1.0000 0.44390  0.05610  0.44390  Biso   1.000  O 
  O5       1.0000 0.44390  0.55610  0.94390  Biso   1.000  O 
  O6       1.0000 0.94390  0.94390  0.05610  Biso   1.000  O 
  O7       1.0000 0.94390  0.44390  0.55610  Biso   1.000  O 
  O8       1.0000 0.05610  0.05610  0.05610  Biso   1.000  O 
  O9       1.0000 0.55610  0.55610  0.05610  Biso   1.000  O 
  O10      1.0000 0.94390  0.05610  0.05610  Biso   1.000  O 
  O11      1.0000 0.94390  0.55610  0.55610  Biso   1.000  O 
  O12      1.0000 0.44390  0.05610  0.55610  Biso   1.000  O 
  O13      1.0000 0.44390  0.55610  0.05610  Biso   1.000  O 
  O14      1.0000 0.05610  0.94390  0.05610  Biso   1.000  O 
  O15      1.0000 0.05610  0.44390  0.55610  Biso   1.000  O 
  O16      1.0000 0.55610  0.94390  0.55610  Biso   1.000  O 
  O17      1.0000 0.55610  0.44390  0.05610  Biso   1.000  O 
  O18      1.0000 0.94390  0.94390  0.94390  Biso   1.000  O 
  O19      1.0000 0.94390  0.44390  0.44390  Biso   1.000  O 
  O20      1.0000 0.44390  0.94390  0.44390  Biso   1.000  O 
  O21      1.0000 0.44390  0.44390  0.94390  Biso   1.000  O 
  O22      1.0000 0.05610  0.05610  0.94390  Biso   1.000  O 
  O23      1.0000 0.05610  0.55610  0.44390  Biso   1.000  O 
  O24      1.0000 0.55610  0.05610  0.44390  Biso   1.000  O 
  C1       1.0000 0.15360  0.00000  0.84640  Biso   1.000  C 
  O25      1.0000 0.17046  0.00000  0.90471  Biso   1.000  O 
  O26      1.0000 0.09529  0.00000  0.82954  Biso   1.000  O 
  C2       1.0000 0.20500  0.00000  0.79500  Biso   1.000  C 
  C3       1.0000 0.18437  0.00000  0.73249  Biso   1.000  C 
  H1       1.0000 0.13046  0.00000  0.72128  Biso   1.000  H 
  N1       1.0000 0.21289  0.00179  0.61623  Biso   1.000  N 
  C4       1.0000 0.23249  0.00000  0.68442  Biso   1.000  C 
  C5       1.0000 0.29500  0.00000  0.70500  Biso   1.000  C 
  C6       1.0000 0.31558  0.00000  0.76751  Biso   1.000  C 
  C7       1.0000 0.26751  0.00000  0.81563  Biso   1.000  C 
  H2       1.0000 0.27872  0.00000  0.86954  Biso   1.000  H 
  H3       1.0000 0.36949  0.00000  0.77872  Biso   1.000  H 
  O27      1.0000 0.40470  0.00000  0.67046  Biso   1.000  O 
  C8       1.0000 0.34640  0.00000  0.65360  Biso   1.000  C 
  O28      1.0000 0.32954  0.00000  0.59529  Biso   1.000  O 
  H4       1.0000 0.17839  0.96552  0.61103  Biso   1.000  H 
  H5       1.0000 0.18894  0.04515  0.60612  Biso   1.000  H 
  C9       1.0000 0.15360  0.50000  0.34640  Biso   1.000  C 
  O29      1.0000 0.17046  0.50000  0.40471  Biso   1.000  O 
  O30      1.0000 0.09529  0.50000  0.32954  Biso   1.000  O 
  C10      1.0000 0.20500  0.50000  0.29500  Biso   1.000  C 
  C11      1.0000 0.18437  0.50000  0.23249  Biso   1.000  C 
  H6       1.0000 0.13046  0.50000  0.22128  Biso   1.000  H 
  N2       1.0000 0.21287  0.50163  0.11621  Biso   1.000  N 
  C12      1.0000 0.23249  0.50000  0.18442  Biso   1.000  C 
  C13      1.0000 0.29500  0.50000  0.20500  Biso   1.000  C 
  C14      1.0000 0.31558  0.50000  0.26751  Biso   1.000  C 
  C15      1.0000 0.26751  0.50000  0.31563  Biso   1.000  C 
  H7       1.0000 0.27872  0.50000  0.36954  Biso   1.000  H 
  H8       1.0000 0.36949  0.50000  0.27872  Biso   1.000  H 
  O31      1.0000 0.40470  0.50000  0.17046  Biso   1.000  O 
  C16      1.0000 0.34640  0.50000  0.15360  Biso   1.000  C 
  O32      1.0000 0.32954  0.50000  0.09529  Biso   1.000  O 
  H9       1.0000 0.17843  0.46530  0.11104  Biso   1.000  H 
  H10      1.0000 0.18885  0.54497  0.10608  Biso   1.000  H 
  C17      1.0000 0.65360  0.00000  0.34640  Biso   1.000  C 
  O33      1.0000 0.67046  0.00000  0.40471  Biso   1.000  O 
  O34      1.0000 0.59529  0.00000  0.32954  Biso   1.000  O 
  C18      1.0000 0.70500  0.00000  0.29500  Biso   1.000  C 
  C19      1.0000 0.68437  0.00000  0.23249  Biso   1.000  C 
  H11      1.0000 0.63046  0.00000  0.22128  Biso   1.000  H 
  N3       1.0000 0.71025  0.00123  0.11297  Biso   1.000  N 
  C20      1.0000 0.73248  0.00000  0.18442  Biso   1.000  C 
  C21      1.0000 0.79499  0.00000  0.20500  Biso   1.000  C 
  C22      1.0000 0.81558  0.00000  0.26751  Biso   1.000  C 
  C23      1.0000 0.76751  0.00000  0.31563  Biso   1.000  C 
  H12      1.0000 0.77872  0.00000  0.36954  Biso   1.000  H 
  H13      1.0000 0.86949  0.00000  0.27872  Biso   1.000  H 
  O35      1.0000 0.90470  0.00000  0.17046  Biso   1.000  O 
  C24      1.0000 0.84639  0.00000  0.15360  Biso   1.000  C 
  O36      1.0000 0.82953  0.00000  0.09529  Biso   1.000  O 
  H14      1.0000 0.67717  0.96624  0.09768  Biso   1.000  H 
  H15      1.0000 0.68776  0.04517  0.10261  Biso   1.000  H 
  C25      1.0000 0.65360  0.50000  0.84640  Biso   1.000  C 
  O37      1.0000 0.67046  0.50000  0.90471  Biso   1.000  O 
  O38      1.0000 0.59529  0.50000  0.82954  Biso   1.000  O 
  C26      1.0000 0.70500  0.50000  0.79500  Biso   1.000  C 
  C27      1.0000 0.68437  0.50000  0.73249  Biso   1.000  C 
  H16      1.0000 0.63046  0.50000  0.72128  Biso   1.000  H 
  N4       1.0000 0.71226  0.50097  0.61240  Biso   1.000  N 
  C28      1.0000 0.73248  0.50000  0.68442  Biso   1.000  C 
  C29      1.0000 0.79499  0.50000  0.70500  Biso   1.000  C 
  C30      1.0000 0.81558  0.50000  0.76751  Biso   1.000  C 
  C31      1.0000 0.76751  0.50000  0.81563  Biso   1.000  C 
  H17      1.0000 0.77872  0.50000  0.86954  Biso   1.000  H 
  H18      1.0000 0.86949  0.50000  0.77872  Biso   1.000  H 
  O39      1.0000 0.90470  0.50000  0.67046  Biso   1.000  O 
  C32      1.0000 0.84639  0.50000  0.65360  Biso   1.000  C 
  O40      1.0000 0.82953  0.50000  0.59529  Biso   1.000  O 
  H19      1.0000 0.67812  0.46523  0.60122  Biso   1.000  H 
  H20      1.0000 0.68992  0.54513  0.60167  Biso   1.000  H 
  C33      1.0000 0.84640  0.00000  0.84640  Biso   1.000  C 
  O41      1.0000 0.82954  0.00000  0.90471  Biso   1.000  O 
  O42      1.0000 0.90471  0.00000  0.82954  Biso   1.000  O 
  C34      1.0000 0.79500  0.00000  0.79500  Biso   1.000  C 
  C35      1.0000 0.81563  0.00000  0.73249  Biso   1.000  C 
  H21      1.0000 0.86954  0.00000  0.72128  Biso   1.000  H 
  N5       1.0000 0.78858  0.99000  0.61344  Biso   1.000  N 
  C36      1.0000 0.76752  0.00000  0.68442  Biso   1.000  C 
  C37      1.0000 0.70501  0.00000  0.70500  Biso   1.000  C 
  C38      1.0000 0.68442  0.00000  0.76751  Biso   1.000  C 
  C39      1.0000 0.73249  0.00000  0.81563  Biso   1.000  C 
  H22      1.0000 0.72128  0.00000  0.86954  Biso   1.000  H 
  H23      1.0000 0.63051  0.00000  0.77872  Biso   1.000  H 
  O43      1.0000 0.59530  0.00000  0.67046  Biso   1.000  O 
  C40      1.0000 0.65361  0.00000  0.65360  Biso   1.000  C 
  O44      1.0000 0.67047  0.00000  0.59529  Biso   1.000  O 
  H24      1.0000 0.81290  0.03258  0.60131  Biso   1.000  H 
  H25      1.0000 0.81098  0.94604  0.60188  Biso   1.000  H 
  C41      1.0000 0.84640  0.50000  0.34640  Biso   1.000  C 
  O45      1.0000 0.82954  0.50000  0.40471  Biso   1.000  O 
  O46      1.0000 0.90471  0.50000  0.32954  Biso   1.000  O 
  C42      1.0000 0.79500  0.50000  0.29500  Biso   1.000  C 
  C43      1.0000 0.81563  0.50000  0.23249  Biso   1.000  C 
  H26      1.0000 0.86954  0.50000  0.22128  Biso   1.000  H 
  N6       1.0000 0.78981  0.50116  0.11326  Biso   1.000  N 
  C44      1.0000 0.76752  0.50000  0.18442  Biso   1.000  C 
  C45      1.0000 0.70501  0.50000  0.20500  Biso   1.000  C 
  C46      1.0000 0.68442  0.50000  0.26751  Biso   1.000  C 
  C47      1.0000 0.73249  0.50000  0.31563  Biso   1.000  C 
  H27      1.0000 0.72128  0.50000  0.36954  Biso   1.000  H 
  H28      1.0000 0.63051  0.50000  0.27872  Biso   1.000  H 
  O47      1.0000 0.59530  0.50000  0.17046  Biso   1.000  O 
  C48      1.0000 0.65361  0.50000  0.15360  Biso   1.000  C 
  O48      1.0000 0.67047  0.50000  0.09529  Biso   1.000  O 
  H29      1.0000 0.82203  0.46548  0.09751  Biso   1.000  H 
  H30      1.0000 0.81255  0.54507  0.10319  Biso   1.000  H 
  C49      1.0000 0.34640  0.00000  0.34640  Biso   1.000  C 
  O49      1.0000 0.32954  0.00000  0.40471  Biso   1.000  O 
  O50      1.0000 0.40471  0.00000  0.32954  Biso   1.000  O 
  C50      1.0000 0.29500  0.00000  0.29500  Biso   1.000  C 
  C51      1.0000 0.31563  0.00000  0.23249  Biso   1.000  C 
  H31      1.0000 0.36954  0.00000  0.22128  Biso   1.000  H 
  N7       1.0000 0.28953  0.00177  0.11379  Biso   1.000  N 
  C52      1.0000 0.26751  0.00000  0.18442  Biso   1.000  C 
  C53      1.0000 0.20500  0.00000  0.20500  Biso   1.000  C 
  C54      1.0000 0.18442  0.00000  0.26751  Biso   1.000  C 
  C55      1.0000 0.23249  0.00000  0.31563  Biso   1.000  C 
  H32      1.0000 0.22128  0.00000  0.36954  Biso   1.000  H 
  H33      1.0000 0.13051  0.00000  0.27872  Biso   1.000  H 
  O51      1.0000 0.09530  0.00000  0.17046  Biso   1.000  O 
  C56      1.0000 0.15360  0.00000  0.15360  Biso   1.000  C 
  O52      1.0000 0.17046  0.00000  0.09529  Biso   1.000  O 
  H34      1.0000 0.31510  0.96049  0.10079  Biso   1.000  H 
  H35      1.0000 0.31977  0.04229  0.10951  Biso   1.000  H 
  C57      1.0000 0.34640  0.50000  0.84640  Biso   1.000  C 
  O53      1.0000 0.32954  0.50000  0.90471  Biso   1.000  O 
  O54      1.0000 0.40471  0.50000  0.82954  Biso   1.000  O 
  C58      1.0000 0.29500  0.50000  0.79500  Biso   1.000  C 
  C59      1.0000 0.31563  0.50000  0.73249  Biso   1.000  C 
  H36      1.0000 0.36954  0.50000  0.72128  Biso   1.000  H 
  N8       1.0000 0.28512  0.49528  0.61546  Biso   1.000  N 
  C60      1.0000 0.26751  0.50000  0.68442  Biso   1.000  C 
  C61      1.0000 0.20500  0.50000  0.70500  Biso   1.000  C 
  C62      1.0000 0.18442  0.50000  0.76751  Biso   1.000  C 
  C63      1.0000 0.23249  0.50000  0.81563  Biso   1.000  C 
  H37      1.0000 0.22128  0.50000  0.86954  Biso   1.000  H 
  H38      1.0000 0.13051  0.50000  0.77872  Biso   1.000  H 
  O55      1.0000 0.09530  0.50000  0.67046  Biso   1.000  O 
  C64      1.0000 0.15360  0.50000  0.65360  Biso   1.000  C 
  O56      1.0000 0.17046  0.50000  0.59529  Biso   1.000  O 
  H39      1.0000 0.30606  0.53578  0.59269  Biso   1.000  H 
  H40      1.0000 0.30599  0.45122  0.60501  Biso   1.000  H 
  C65      1.0000 0.84640  0.15360  0.00000  Biso   1.000  C 
  O57      1.0000 0.90471  0.17046  0.00000  Biso   1.000  O 
  O58      1.0000 0.82954  0.09529  0.00000  Biso   1.000  O 
  C66      1.0000 0.79500  0.20500  0.00000  Biso   1.000  C 
  C67      1.0000 0.73249  0.18437  0.00000  Biso   1.000  C 
  H41      1.0000 0.72128  0.13046  0.00000  Biso   1.000  H 
  N9       1.0000 0.61345  0.21000  0.00171  Biso   1.000  N 
  C68      1.0000 0.68442  0.23249  0.00000  Biso   1.000  C 
  C69      1.0000 0.70500  0.29500  0.00000  Biso   1.000  C 
  C70      1.0000 0.76751  0.31558  0.00000  Biso   1.000  C 
  C71      1.0000 0.81563  0.26751  0.00000  Biso   1.000  C 
  H42      1.0000 0.86954  0.27872  0.00000  Biso   1.000  H 
  H43      1.0000 0.77872  0.36949  0.00000  Biso   1.000  H 
  O59      1.0000 0.67046  0.40470  0.00000  Biso   1.000  O 
  C72      1.0000 0.65360  0.34640  0.00000  Biso   1.000  C 
  O60      1.0000 0.59529  0.32954  0.00000  Biso   1.000  O 
  H44      1.0000 0.59811  0.17896  0.96500  Biso   1.000  H 
  H45      1.0000 0.60242  0.18635  0.04489  Biso   1.000  H 
  C73      1.0000 0.84640  0.65360  0.50000  Biso   1.000  C 
  O61      1.0000 0.90471  0.67046  0.50000  Biso   1.000  O 
  O62      1.0000 0.82954  0.59529  0.50000  Biso   1.000  O 
  C74      1.0000 0.79500  0.70500  0.50000  Biso   1.000  C 
  C75      1.0000 0.73249  0.68437  0.50000  Biso   1.000  C 
  H46      1.0000 0.72128  0.63046  0.50000  Biso   1.000  H 
  N10      1.0000 0.61567  0.71261  0.49554  Biso   1.000  N 
  C76      1.0000 0.68442  0.73248  0.50000  Biso   1.000  C 
  C77      1.0000 0.70500  0.79499  0.50000  Biso   1.000  C 
  C78      1.0000 0.76751  0.81558  0.50000  Biso   1.000  C 
  C79      1.0000 0.81563  0.76751  0.50000  Biso   1.000  C 
  H47      1.0000 0.86954  0.77872  0.50000  Biso   1.000  H 
  H48      1.0000 0.77872  0.86949  0.50000  Biso   1.000  H 
  O63      1.0000 0.67046  0.90470  0.50000  Biso   1.000  O 
  C80      1.0000 0.65360  0.84639  0.50000  Biso   1.000  C 
  O64      1.0000 0.59529  0.82953  0.50000  Biso   1.000  O 
  H49      1.0000 0.59662  0.72497  0.44982  Biso   1.000  H 
  H50      1.0000 0.61014  0.66305  0.50372  Biso   1.000  H 
  C81      1.0000 0.34640  0.15360  0.50000  Biso   1.000  C 
  O65      1.0000 0.40471  0.17046  0.50000  Biso   1.000  O 
  O66      1.0000 0.32954  0.09529  0.50000  Biso   1.000  O 
  C82      1.0000 0.29500  0.20500  0.50000  Biso   1.000  C 
  C83      1.0000 0.23249  0.18437  0.50000  Biso   1.000  C 
  H51      1.0000 0.22128  0.13046  0.50000  Biso   1.000  H 
  N11      1.0000 0.11425  0.21109  0.50178  Biso   1.000  N 
  C84      1.0000 0.18442  0.23249  0.50000  Biso   1.000  C 
  C85      1.0000 0.20500  0.29500  0.50000  Biso   1.000  C 
  C86      1.0000 0.26751  0.31558  0.50000  Biso   1.000  C 
  C87      1.0000 0.31563  0.26751  0.50000  Biso   1.000  C 
  H52      1.0000 0.36954  0.27872  0.50000  Biso   1.000  H 
  H53      1.0000 0.27872  0.36949  0.50000  Biso   1.000  H 
  O67      1.0000 0.17046  0.40470  0.50000  Biso   1.000  O 
  C88      1.0000 0.15360  0.34640  0.50000  Biso   1.000  C 
  O68      1.0000 0.09529  0.32954  0.50000  Biso   1.000  O 
  H54      1.0000 0.10701  0.17674  0.46578  Biso   1.000  H 
  H55      1.0000 0.10296  0.19254  0.54758  Biso   1.000  H 
  C89      1.0000 0.34640  0.65360  0.00000  Biso   1.000  C 
  O69      1.0000 0.40471  0.67046  0.00000  Biso   1.000  O 
  O70      1.0000 0.32954  0.59529  0.00000  Biso   1.000  O 
  C90      1.0000 0.29500  0.70500  0.00000  Biso   1.000  C 
  C91      1.0000 0.23249  0.68437  0.00000  Biso   1.000  C 
  H56      1.0000 0.22128  0.63046  0.00000  Biso   1.000  H 
  N12      1.0000 0.11645  0.71310  0.00163  Biso   1.000  N 
  C92      1.0000 0.18442  0.73248  0.00000  Biso   1.000  C 
  C93      1.0000 0.20500  0.79499  0.00000  Biso   1.000  C 
  C94      1.0000 0.26751  0.81558  0.00000  Biso   1.000  C 
  C95      1.0000 0.31563  0.76751  0.00000  Biso   1.000  C 
  H57      1.0000 0.36954  0.77872  0.00000  Biso   1.000  H 
  H58      1.0000 0.27872  0.86949  0.00000  Biso   1.000  H 
  O71      1.0000 0.17046  0.90470  0.00000  Biso   1.000  O 
  C96      1.0000 0.15360  0.84639  0.00000  Biso   1.000  C 
  O72      1.0000 0.09529  0.82953  0.00000  Biso   1.000  O 
  H59      1.0000 0.11161  0.67873  0.96521  Biso   1.000  H 
  H60      1.0000 0.10590  0.68886  0.04466  Biso   1.000  H 
  C97      1.0000 0.84640  0.84640  0.00000  Biso   1.000  C 
  O73      1.0000 0.90471  0.82954  0.00000  Biso   1.000  O 
  O74      1.0000 0.82954  0.90471  0.00000  Biso   1.000  O 
  C98      1.0000 0.79500  0.79500  0.00000  Biso   1.000  C 
  C99      1.0000 0.73249  0.81563  0.00000  Biso   1.000  C 
  H61      1.0000 0.72128  0.86954  0.00000  Biso   1.000  H 
  N13      1.0000 0.61621  0.78708  0.00148  Biso   1.000  N 
  C100     1.0000 0.68442  0.76752  0.00000  Biso   1.000  C 
  C101     1.0000 0.70500  0.70501  0.00000  Biso   1.000  C 
  C102     1.0000 0.76751  0.68442  0.00000  Biso   1.000  C 
  C103     1.0000 0.81563  0.73249  0.00000  Biso   1.000  C 
  H62      1.0000 0.86954  0.72128  0.00000  Biso   1.000  H 
  H63      1.0000 0.77872  0.63051  0.00000  Biso   1.000  H 
  O75      1.0000 0.67046  0.59530  0.00000  Biso   1.000  O 
  C104     1.0000 0.65360  0.65361  0.00000  Biso   1.000  C 
  O76      1.0000 0.59529  0.67047  0.00000  Biso   1.000  O 
  H64      1.0000 0.61119  0.82160  0.96519  Biso   1.000  H 
  H65      1.0000 0.60593  0.81099  0.04483  Biso   1.000  H 
  C105     1.0000 0.84640  0.34640  0.50000  Biso   1.000  C 
  O77      1.0000 0.90471  0.32954  0.50000  Biso   1.000  O 
  O78      1.0000 0.82954  0.40471  0.50000  Biso   1.000  O 
  C106     1.0000 0.79500  0.29500  0.50000  Biso   1.000  C 
  C107     1.0000 0.73249  0.31563  0.50000  Biso   1.000  C 
  H66      1.0000 0.72128  0.36954  0.50000  Biso   1.000  H 
  N14      1.0000 0.61440  0.28637  0.49863  Biso   1.000  N 
  C108     1.0000 0.68442  0.26751  0.50000  Biso   1.000  C 
  C109     1.0000 0.70500  0.20500  0.50000  Biso   1.000  C 
  C110     1.0000 0.76751  0.18442  0.50000  Biso   1.000  C 
  C111     1.0000 0.81563  0.23249  0.50000  Biso   1.000  C 
  H67      1.0000 0.86954  0.22128  0.50000  Biso   1.000  H 
  H68      1.0000 0.77872  0.13051  0.50000  Biso   1.000  H 
  O79      1.0000 0.67046  0.09530  0.50000  Biso   1.000  O 
  C112     1.0000 0.65360  0.15360  0.50000  Biso   1.000  C 
  O80      1.0000 0.59529  0.17046  0.50000  Biso   1.000  O 
  H69      1.0000 0.59912  0.30568  0.54281  Biso   1.000  H 
  H70      1.0000 0.61715  0.31974  0.46141  Biso   1.000  H 
  C113     1.0000 0.34640  0.84640  0.50000  Biso   1.000  C 
  O81      1.0000 0.40471  0.82954  0.50000  Biso   1.000  O 
  O82      1.0000 0.32954  0.90471  0.50000  Biso   1.000  O 
  C114     1.0000 0.29500  0.79500  0.50000  Biso   1.000  C 
  C115     1.0000 0.23249  0.81563  0.50000  Biso   1.000  C 
  H71      1.0000 0.22128  0.86954  0.50000  Biso   1.000  H 
  N15      1.0000 0.11585  0.78533  0.48802  Biso   1.000  N 
  C116     1.0000 0.18442  0.76752  0.50000  Biso   1.000  C 
  C117     1.0000 0.20500  0.70501  0.50000  Biso   1.000  C 
  C118     1.0000 0.26751  0.68442  0.50000  Biso   1.000  C 
  C119     1.0000 0.31563  0.73249  0.50000  Biso   1.000  C 
  H72      1.0000 0.36954  0.72128  0.50000  Biso   1.000  H 
  H73      1.0000 0.27872  0.63051  0.50000  Biso   1.000  H 
  O83      1.0000 0.17046  0.59530  0.50000  Biso   1.000  O 
  C120     1.0000 0.15360  0.65361  0.50000  Biso   1.000  C 
  O84      1.0000 0.09529  0.67047  0.50000  Biso   1.000  O 
  H74      1.0000 0.11858  0.81238  0.44479  Biso   1.000  H 
  H75      1.0000 0.09051  0.80609  0.52654  Biso   1.000  H 
  C121     1.0000 0.34640  0.34640  0.00000  Biso   1.000  C 
  O85      1.0000 0.40471  0.32954  0.00000  Biso   1.000  O 
  O86      1.0000 0.32954  0.40471  0.00000  Biso   1.000  O 
  C122     1.0000 0.29500  0.29500  0.00000  Biso   1.000  C 
  C123     1.0000 0.23249  0.31563  0.00000  Biso   1.000  C 
  H76      1.0000 0.22128  0.36954  0.00000  Biso   1.000  H 
  N16      1.0000 0.11403  0.28914  0.00182  Biso   1.000  N 
  C124     1.0000 0.18442  0.26751  0.00000  Biso   1.000  C 
  C125     1.0000 0.20500  0.20500  0.00000  Biso   1.000  C 
  C126     1.0000 0.26751  0.18442  0.00000  Biso   1.000  C 
  C127     1.0000 0.31563  0.23249  0.00000  Biso   1.000  C 
  H77      1.0000 0.36954  0.22128  0.00000  Biso   1.000  H 
  H78      1.0000 0.27872  0.13051  0.00000  Biso   1.000  H 
  O87      1.0000 0.17046  0.09530  0.00000  Biso   1.000  O 
  C128     1.0000 0.15360  0.15360  0.00000  Biso   1.000  C 
  O88      1.0000 0.09529  0.17046  0.00000  Biso   1.000  O 
  H79      1.0000 0.10376  0.31668  0.96101  Biso   1.000  H 
  H80      1.0000 0.10883  0.31863  0.04285  Biso   1.000  H 
  C129     1.0000 0.00000  0.84640  0.15360  Biso   1.000  C 
  O89      1.0000 0.00000  0.90471  0.17046  Biso   1.000  O 
  O90      1.0000 0.00000  0.82954  0.09529  Biso   1.000  O 
  C130     1.0000 0.00000  0.79500  0.20500  Biso   1.000  C 
  C131     1.0000 0.00000  0.73249  0.18437  Biso   1.000  C 
  H81      1.0000 0.00000  0.72128  0.13046  Biso   1.000  H 
  N17      1.0000 0.00164  0.61614  0.21280  Biso   1.000  N 
  C132     1.0000 0.00000  0.68442  0.23249  Biso   1.000  C 
  C133     1.0000 0.00000  0.70500  0.29500  Biso   1.000  C 
  C134     1.0000 0.00000  0.76751  0.31558  Biso   1.000  C 
  C135     1.0000 0.00000  0.81563  0.26751  Biso   1.000  C 
  H82      1.0000 0.00000  0.86954  0.27872  Biso   1.000  H 
  H83      1.0000 0.00000  0.77872  0.36949  Biso   1.000  H 
  O91      1.0000 0.00000  0.67046  0.40470  Biso   1.000  O 
  C136     1.0000 0.00000  0.65360  0.34640  Biso   1.000  C 
  O92      1.0000 0.00000  0.59529  0.32954  Biso   1.000  O 
  H84      1.0000 0.96529  0.61086  0.17839  Biso   1.000  H 
  H85      1.0000 0.04502  0.60612  0.18880  Biso   1.000  H 
  C137     1.0000 0.00000  0.34640  0.65360  Biso   1.000  C 
  O93      1.0000 0.00000  0.40471  0.67046  Biso   1.000  O 
  O94      1.0000 0.00000  0.32954  0.59529  Biso   1.000  O 
  C138     1.0000 0.00000  0.29500  0.70500  Biso   1.000  C 
  C139     1.0000 0.00000  0.23249  0.68437  Biso   1.000  C 
  H86      1.0000 0.00000  0.22128  0.63046  Biso   1.000  H 
  N18      1.0000 0.00194  0.11520  0.71208  Biso   1.000  N 
  C140     1.0000 0.00000  0.18442  0.73248  Biso   1.000  C 
  C141     1.0000 0.00000  0.20500  0.79499  Biso   1.000  C 
  C142     1.0000 0.00000  0.26751  0.81558  Biso   1.000  C 
  C143     1.0000 0.00000  0.31563  0.76751  Biso   1.000  C 
  H87      1.0000 0.00000  0.36954  0.77872  Biso   1.000  H 
  H88      1.0000 0.00000  0.27872  0.86949  Biso   1.000  H 
  O95      1.0000 0.00000  0.17046  0.90470  Biso   1.000  O 
  C144     1.0000 0.00000  0.15360  0.84639  Biso   1.000  C 
  O96      1.0000 0.00000  0.09529  0.82953  Biso   1.000  O 
  H89      1.0000 0.96422  0.10864  0.67940  Biso   1.000  H 
  H90      1.0000 0.04491  0.10692  0.68643  Biso   1.000  H 
  C145     1.0000 0.50000  0.84640  0.65360  Biso   1.000  C 
  O97      1.0000 0.50000  0.90471  0.67046  Biso   1.000  O 
  O98      1.0000 0.50000  0.82954  0.59529  Biso   1.000  O 
  C146     1.0000 0.50000  0.79500  0.70500  Biso   1.000  C 
  C147     1.0000 0.50000  0.73249  0.68437  Biso   1.000  C 
  H91      1.0000 0.50000  0.72128  0.63046  Biso   1.000  H 
  N19      1.0000 0.50462  0.61340  0.71143  Biso   1.000  N 
  C148     1.0000 0.50000  0.68442  0.73248  Biso   1.000  C 
  C149     1.0000 0.50000  0.70500  0.79499  Biso   1.000  C 
  C150     1.0000 0.50000  0.76751  0.81558  Biso   1.000  C 
  C151     1.0000 0.50000  0.81563  0.76751  Biso   1.000  C 
  H92      1.0000 0.50000  0.86954  0.77872  Biso   1.000  H 
  H93      1.0000 0.50000  0.77872  0.86949  Biso   1.000  H 
  O99      1.0000 0.50000  0.67046  0.90470  Biso   1.000  O 
  C152     1.0000 0.50000  0.65360  0.84639  Biso   1.000  C 
  O100     1.0000 0.50000  0.59529  0.82953  Biso   1.000  O 
  H94      1.0000 0.55422  0.60915  0.69773  Biso   1.000  H 
  H95      1.0000 0.48063  0.60121  0.66828  Biso   1.000  H 
  C153     1.0000 0.50000  0.34640  0.15360  Biso   1.000  C 
  O101     1.0000 0.50000  0.40471  0.17046  Biso   1.000  O 
  O102     1.0000 0.50000  0.32954  0.09529  Biso   1.000  O 
  C154     1.0000 0.50000  0.29500  0.20500  Biso   1.000  C 
  C155     1.0000 0.50000  0.23249  0.18437  Biso   1.000  C 
  H96      1.0000 0.50000  0.22128  0.13046  Biso   1.000  H 
  N20      1.0000 0.50179  0.11422  0.21103  Biso   1.000  N 
  C156     1.0000 0.50000  0.18442  0.23249  Biso   1.000  C 
  C157     1.0000 0.50000  0.20500  0.29500  Biso   1.000  C 
  C158     1.0000 0.50000  0.26751  0.31558  Biso   1.000  C 
  C159     1.0000 0.50000  0.31563  0.26751  Biso   1.000  C 
  H97      1.0000 0.50000  0.36954  0.27872  Biso   1.000  H 
  H98      1.0000 0.50000  0.27872  0.36949  Biso   1.000  H 
  O103     1.0000 0.50000  0.17046  0.40470  Biso   1.000  O 
  C160     1.0000 0.50000  0.15360  0.34640  Biso   1.000  C 
  O104     1.0000 0.50000  0.09529  0.32954  Biso   1.000  O 
  H99      1.0000 0.46573  0.10691  0.17678  Biso   1.000  H 
  H100     1.0000 0.54760  0.10290  0.19254  Biso   1.000  H 
  C161     1.0000 0.00000  0.84640  0.84640  Biso   1.000  C 
  O105     1.0000 0.00000  0.90471  0.82954  Biso   1.000  O 
  O106     1.0000 0.00000  0.82954  0.90471  Biso   1.000  O 
  C162     1.0000 0.00000  0.79500  0.79500  Biso   1.000  C 
  C163     1.0000 0.00000  0.73249  0.81563  Biso   1.000  C 
  H101     1.0000 0.00000  0.72128  0.86954  Biso   1.000  H 
  N21      1.0000 0.00502  0.61460  0.78584  Biso   1.000  N 
  C164     1.0000 0.00000  0.68442  0.76752  Biso   1.000  C 
  C165     1.0000 0.00000  0.70500  0.70501  Biso   1.000  C 
  C166     1.0000 0.00000  0.76751  0.68442  Biso   1.000  C 
  C167     1.0000 0.00000  0.81563  0.73249  Biso   1.000  C 
  H102     1.0000 0.00000  0.86954  0.72128  Biso   1.000  H 
  H103     1.0000 0.00000  0.77872  0.63051  Biso   1.000  H 
  O107     1.0000 0.00000  0.67046  0.59530  Biso   1.000  O 
  C168     1.0000 0.00000  0.65360  0.65361  Biso   1.000  C 
  O108     1.0000 0.00000  0.59529  0.67047  Biso   1.000  O 
  H104     1.0000 0.05373  0.59834  0.77968  Biso   1.000  H 
  H105     1.0000 0.00064  0.61374  0.83679  Biso   1.000  H 
  C169     1.0000 0.00000  0.34640  0.34640  Biso   1.000  C 
  O109     1.0000 0.00000  0.40471  0.32954  Biso   1.000  O 
  O110     1.0000 0.00000  0.32954  0.40471  Biso   1.000  O 
  C170     1.0000 0.00000  0.29500  0.29500  Biso   1.000  C 
  C171     1.0000 0.00000  0.23249  0.31563  Biso   1.000  C 
  H106     1.0000 0.00000  0.22128  0.36954  Biso   1.000  H 
  N22      1.0000 0.00148  0.11413  0.28917  Biso   1.000  N 
  C172     1.0000 0.00000  0.18442  0.26751  Biso   1.000  C 
  C173     1.0000 0.00000  0.20500  0.20500  Biso   1.000  C 
  C174     1.0000 0.00000  0.26751  0.18442  Biso   1.000  C 
  C175     1.0000 0.00000  0.31563  0.23249  Biso   1.000  C 
  H107     1.0000 0.00000  0.36954  0.22128  Biso   1.000  H 
  H108     1.0000 0.00000  0.27872  0.13051  Biso   1.000  H 
  O111     1.0000 0.00000  0.17046  0.09530  Biso   1.000  O 
  C176     1.0000 0.00000  0.15360  0.15360  Biso   1.000  C 
  O112     1.0000 0.00000  0.09529  0.17046  Biso   1.000  O 
  H109     1.0000 0.96641  0.10639  0.32432  Biso   1.000  H 
  H110     1.0000 0.04794  0.10214  0.30551  Biso   1.000  H 
  C177     1.0000 0.50000  0.84640  0.34640  Biso   1.000  C 
  O113     1.0000 0.50000  0.90471  0.32954  Biso   1.000  O 
  O114     1.0000 0.50000  0.82954  0.40471  Biso   1.000  O 
  C178     1.0000 0.50000  0.79500  0.29500  Biso   1.000  C 
  C179     1.0000 0.50000  0.73249  0.31563  Biso   1.000  C 
  H111     1.0000 0.50000  0.72128  0.36954  Biso   1.000  H 
  N23      1.0000 0.50186  0.61379  0.28957  Biso   1.000  N 
  C180     1.0000 0.50000  0.68442  0.26751  Biso   1.000  C 
  C181     1.0000 0.50000  0.70500  0.20500  Biso   1.000  C 
  C182     1.0000 0.50000  0.76751  0.18442  Biso   1.000  C 
  C183     1.0000 0.50000  0.81563  0.23249  Biso   1.000  C 
  H112     1.0000 0.50000  0.86954  0.22128  Biso   1.000  H 
  H113     1.0000 0.50000  0.77872  0.13051  Biso   1.000  H 
  O115     1.0000 0.50000  0.67046  0.09530  Biso   1.000  O 
  C184     1.0000 0.50000  0.65360  0.15360  Biso   1.000  C 
  O116     1.0000 0.50000  0.59529  0.17046  Biso   1.000  O 
  H114     1.0000 0.46051  0.60013  0.31464  Biso   1.000  H 
  H115     1.0000 0.54230  0.60960  0.31989  Biso   1.000  H 
  C185     1.0000 0.50000  0.34640  0.84640  Biso   1.000  C 
  O117     1.0000 0.50000  0.40471  0.82954  Biso   1.000  O 
  O118     1.0000 0.50000  0.32954  0.90471  Biso   1.000  O 
  C186     1.0000 0.50000  0.29500  0.79500  Biso   1.000  C 
  C187     1.0000 0.50000  0.23249  0.81563  Biso   1.000  C 
  H116     1.0000 0.50000  0.22128  0.86954  Biso   1.000  H 
  N24      1.0000 0.49503  0.11437  0.78714  Biso   1.000  N 
  C188     1.0000 0.50000  0.18442  0.76752  Biso   1.000  C 
  C189     1.0000 0.50000  0.20500  0.70501  Biso   1.000  C 
  C190     1.0000 0.50000  0.26751  0.68442  Biso   1.000  C 
  C191     1.0000 0.50000  0.31563  0.73249  Biso   1.000  C 
  H117     1.0000 0.50000  0.36954  0.72128  Biso   1.000  H 
  H118     1.0000 0.50000  0.27872  0.63051  Biso   1.000  H 
  O119     1.0000 0.50000  0.17046  0.59530  Biso   1.000  O 
  C192     1.0000 0.50000  0.15360  0.65361  Biso   1.000  C 
  O120     1.0000 0.50000  0.09529  0.67047  Biso   1.000  O 
  H119     1.0000 0.45007  0.10799  0.81077  Biso   1.000  H 
  H120     1.0000 0.53203  0.10217  0.81933  Biso   1.000  H 
