data_image0
_cell_length_a       20.7004
_cell_length_b       20.7004
_cell_length_c       20.7004
_cell_angle_alpha    90
_cell_angle_beta     90
_cell_angle_gamma    90

_symmetry_space_group_name_H-M    "P 1"
_symmetry_int_tables_number       1

loop_
  _symmetry_equiv_pos_as_xyz
  'x, y, z'

loop_
  _atom_site_label
  _atom_site_occupancy
  _atom_site_fract_x
  _atom_site_fract_y
  _atom_site_fract_z
  _atom_site_thermal_displace_type
  _atom_site_B_iso_or_equiv
  _atom_site_type_symbol
  Zr1      1.0000 0.11989  0.00000  0.00000  Biso   1.000  Zr
  Zr2      1.0000 0.11989  0.50000  0.50000  Biso   1.000  Zr
  Zr3      1.0000 0.61989  0.00000  0.50000  Biso   1.000  Zr
  Zr4      1.0000 0.61989  0.50000  0.00000  Biso   1.000  Zr
  Zr5      1.0000 0.88011  0.00000  0.00000  Biso   1.000  Zr
  Zr6      1.0000 0.88011  0.50000  0.50000  Biso   1.000  Zr
  Zr7      1.0000 0.38011  0.00000  0.50000  Biso   1.000  Zr
  Zr8      1.0000 0.38011  0.50000  0.00000  Biso   1.000  Zr
  Zr9      1.0000 0.00000  0.11989  0.00000  Biso   1.000  Zr
  Zr10     1.0000 0.00000  0.61989  0.50000  Biso   1.000  Zr
  Zr11     1.0000 0.50000  0.11989  0.50000  Biso   1.000  Zr
  Zr12     1.0000 0.50000  0.61989  0.00000  Biso   1.000  Zr
  Zr13     1.0000 0.00000  0.88011  0.00000  Biso   1.000  Zr
  Zr14     1.0000 0.00000  0.38011  0.50000  Biso   1.000  Zr
  Zr15     1.0000 0.50000  0.88011  0.50000  Biso   1.000  Zr
  Zr16     1.0000 0.50000  0.38011  0.00000  Biso   1.000  Zr
  Zr17     1.0000 0.00000  0.00000  0.11989  Biso   1.000  Zr
  Zr18     1.0000 0.00000  0.50000  0.61989  Biso   1.000  Zr
  Zr19     1.0000 0.50000  0.00000  0.61989  Biso   1.000  Zr
  Zr20     1.0000 0.50000  0.50000  0.11989  Biso   1.000  Zr
  Zr21     1.0000 0.00000  0.00000  0.88011  Biso   1.000  Zr
  Zr22     1.0000 0.00000  0.50000  0.38011  Biso   1.000  Zr
  Zr23     1.0000 0.50000  0.00000  0.38011  Biso   1.000  Zr
  Zr24     1.0000 0.50000  0.50000  0.88011  Biso   1.000  Zr
  O1       1.0000 0.05610  0.44390  0.44390  Biso   1.000  O 
  O2       1.0000 0.55610  0.94390  0.44390  Biso   1.000  O 
  O3       1.0000 0.55610  0.44390  0.94390  Biso   1.000  O 
  O4       1.0000 0.44390  0.05610  0.44390  Biso   1.000  O 
  O5       1.0000 0.44390  0.55610  0.94390  Biso   1.000  O 
  O6       1.0000 0.94390  0.94390  0.05610  Biso   1.000  O 
  O7       1.0000 0.94390  0.44390  0.55610  Biso   1.000  O 
  O8       1.0000 0.05610  0.05610  0.05610  Biso   1.000  O 
  O9       1.0000 0.55610  0.55610  0.05610  Biso   1.000  O 
  O10      1.0000 0.94390  0.05610  0.05610  Biso   1.000  O 
  O11      1.0000 0.94390  0.55610  0.55610  Biso   1.000  O 
  O12      1.0000 0.44390  0.05610  0.55610  Biso   1.000  O 
  O13      1.0000 0.44390  0.55610  0.05610  Biso   1.000  O 
  O14      1.0000 0.05610  0.94390  0.05610  Biso   1.000  O 
  O15      1.0000 0.05610  0.44390  0.55610  Biso   1.000  O 
  O16      1.0000 0.55610  0.94390  0.55610  Biso   1.000  O 
  O17      1.0000 0.55610  0.44390  0.05610  Biso   1.000  O 
  O18      1.0000 0.94390  0.94390  0.94390  Biso   1.000  O 
  O19      1.0000 0.94390  0.44390  0.44390  Biso   1.000  O 
  O20      1.0000 0.44390  0.94390  0.44390  Biso   1.000  O 
  O21      1.0000 0.44390  0.44390  0.94390  Biso   1.000  O 
  O22      1.0000 0.05610  0.05610  0.94390  Biso   1.000  O 
  O23      1.0000 0.05610  0.55610  0.44390  Biso   1.000  O 
  O24      1.0000 0.55610  0.05610  0.44390  Biso   1.000  O 
  C1       1.0000 0.15360  0.00000  0.84640  Biso   1.000  C 
  O25      1.0000 0.17046  0.00000  0.90471  Biso   1.000  O 
  O26      1.0000 0.09529  0.00000  0.82954  Biso   1.000  O 
  C2       1.0000 0.20500  0.00000  0.79500  Biso   1.000  C 
  C3       1.0000 0.18437  0.00000  0.73249  Biso   1.000  C 
  H1       1.0000 0.13046  0.00000  0.72128  Biso   1.000  H 
  O27      1.0000 0.21408  0.00385  0.61791  Biso   1.000  O 
  C4       1.0000 0.23249  0.00000  0.68442  Biso   1.000  C 
  C5       1.0000 0.29500  0.00000  0.70500  Biso   1.000  C 
  C6       1.0000 0.31558  0.00000  0.76751  Biso   1.000  C 
  C7       1.0000 0.26751  0.00000  0.81563  Biso   1.000  C 
  O28      1.0000 0.28567  0.00149  0.88195  Biso   1.000  O 
  H2       1.0000 0.36949  0.00000  0.77872  Biso   1.000  H 
  O29      1.0000 0.40470  0.00000  0.67046  Biso   1.000  O 
  C8       1.0000 0.34640  0.00000  0.65360  Biso   1.000  C 
  O30      1.0000 0.32954  0.00000  0.59529  Biso   1.000  O 
  H3       1.0000 0.21574  0.05107  0.60857  Biso   1.000  H 
  H4       1.0000 0.28105  0.04665  0.89691  Biso   1.000  H 
  C9       1.0000 0.15360  0.50000  0.34640  Biso   1.000  C 
  O31      1.0000 0.17046  0.50000  0.40471  Biso   1.000  O 
  O32      1.0000 0.09529  0.50000  0.32954  Biso   1.000  O 
  C10      1.0000 0.20500  0.50000  0.29500  Biso   1.000  C 
  C11      1.0000 0.18437  0.50000  0.23249  Biso   1.000  C 
  H5       1.0000 0.13046  0.50000  0.22128  Biso   1.000  H 
  O33      1.0000 0.21370  0.50389  0.11796  Biso   1.000  O 
  C12      1.0000 0.23249  0.50000  0.18442  Biso   1.000  C 
  C13      1.0000 0.29500  0.50000  0.20500  Biso   1.000  C 
  C14      1.0000 0.31558  0.50000  0.26751  Biso   1.000  C 
  C15      1.0000 0.26751  0.50000  0.31563  Biso   1.000  C 
  O34      1.0000 0.28284  0.49834  0.38323  Biso   1.000  O 
  H6       1.0000 0.36949  0.50000  0.27872  Biso   1.000  H 
  O35      1.0000 0.40470  0.50000  0.17046  Biso   1.000  O 
  C16      1.0000 0.34640  0.50000  0.15360  Biso   1.000  C 
  O36      1.0000 0.32954  0.50000  0.09529  Biso   1.000  O 
  H7       1.0000 0.21254  0.55128  0.10941  Biso   1.000  H 
  H8       1.0000 0.29218  0.45317  0.39535  Biso   1.000  H 
  C17      1.0000 0.65360  0.00000  0.34640  Biso   1.000  C 
  O37      1.0000 0.67046  0.00000  0.40471  Biso   1.000  O 
  O38      1.0000 0.59529  0.00000  0.32954  Biso   1.000  O 
  C18      1.0000 0.70500  0.00000  0.29500  Biso   1.000  C 
  C19      1.0000 0.68437  0.00000  0.23249  Biso   1.000  C 
  H9       1.0000 0.63046  0.00000  0.22128  Biso   1.000  H 
  O39      1.0000 0.71312  0.00399  0.11806  Biso   1.000  O 
  C20      1.0000 0.73248  0.00000  0.18442  Biso   1.000  C 
  C21      1.0000 0.79499  0.00000  0.20500  Biso   1.000  C 
  C22      1.0000 0.81558  0.00000  0.26751  Biso   1.000  C 
  C23      1.0000 0.76751  0.00000  0.31563  Biso   1.000  C 
  O40      1.0000 0.78363  0.99835  0.38335  Biso   1.000  O 
  H10      1.0000 0.86949  0.00000  0.27872  Biso   1.000  H 
  O41      1.0000 0.90470  0.00000  0.17046  Biso   1.000  O 
  C24      1.0000 0.84639  0.00000  0.15360  Biso   1.000  C 
  O42      1.0000 0.82953  0.00000  0.09529  Biso   1.000  O 
  H11      1.0000 0.70824  0.05135  0.11085  Biso   1.000  H 
  H12      1.0000 0.79649  0.95326  0.39271  Biso   1.000  H 
  C25      1.0000 0.65360  0.50000  0.84640  Biso   1.000  C 
  O43      1.0000 0.67046  0.50000  0.90471  Biso   1.000  O 
  O44      1.0000 0.59529  0.50000  0.82954  Biso   1.000  O 
  C26      1.0000 0.70500  0.50000  0.79500  Biso   1.000  C 
  C27      1.0000 0.68437  0.50000  0.73249  Biso   1.000  C 
  H13      1.0000 0.63046  0.50000  0.72128  Biso   1.000  H 
  O45      1.0000 0.71302  0.50401  0.61808  Biso   1.000  O 
  C28      1.0000 0.73248  0.50000  0.68442  Biso   1.000  C 
  C29      1.0000 0.79499  0.50000  0.70500  Biso   1.000  C 
  C30      1.0000 0.81558  0.50000  0.76751  Biso   1.000  C 
  C31      1.0000 0.76751  0.50000  0.81563  Biso   1.000  C 
  O46      1.0000 0.78549  0.49859  0.88204  Biso   1.000  O 
  H14      1.0000 0.86949  0.50000  0.77872  Biso   1.000  H 
  O47      1.0000 0.90470  0.50000  0.67046  Biso   1.000  O 
  C32      1.0000 0.84639  0.50000  0.65360  Biso   1.000  C 
  O48      1.0000 0.82953  0.50000  0.59529  Biso   1.000  O 
  H15      1.0000 0.70733  0.55133  0.61126  Biso   1.000  H 
  H16      1.0000 0.78128  0.45330  0.89685  Biso   1.000  H 
  C33      1.0000 0.84640  0.00000  0.84640  Biso   1.000  C 
  O49      1.0000 0.82954  0.00000  0.90471  Biso   1.000  O 
  O50      1.0000 0.90471  0.00000  0.82954  Biso   1.000  O 
  C34      1.0000 0.79500  0.00000  0.79500  Biso   1.000  C 
  C35      1.0000 0.81563  0.00000  0.73249  Biso   1.000  C 
  H17      1.0000 0.86954  0.00000  0.72128  Biso   1.000  H 
  O51      1.0000 0.78264  0.99422  0.61633  Biso   1.000  O 
  C36      1.0000 0.76752  0.00000  0.68442  Biso   1.000  C 
  C37      1.0000 0.70501  0.00000  0.70500  Biso   1.000  C 
  C38      1.0000 0.68442  0.00000  0.76751  Biso   1.000  C 
  C39      1.0000 0.73249  0.00000  0.81563  Biso   1.000  C 
  O52      1.0000 0.71454  0.99852  0.88205  Biso   1.000  O 
  H18      1.0000 0.63051  0.00000  0.77872  Biso   1.000  H 
  O53      1.0000 0.59530  0.00000  0.67046  Biso   1.000  O 
  C40      1.0000 0.65361  0.00000  0.65360  Biso   1.000  C 
  O54      1.0000 0.67047  0.00000  0.59529  Biso   1.000  O 
  H19      1.0000 0.77122  0.94964  0.60256  Biso   1.000  H 
  H20      1.0000 0.71880  0.95320  0.89681  Biso   1.000  H 
  C41      1.0000 0.84640  0.50000  0.34640  Biso   1.000  C 
  O55      1.0000 0.82954  0.50000  0.40471  Biso   1.000  O 
  O56      1.0000 0.90471  0.50000  0.32954  Biso   1.000  O 
  C42      1.0000 0.79500  0.50000  0.29500  Biso   1.000  C 
  C43      1.0000 0.81563  0.50000  0.23249  Biso   1.000  C 
  H21      1.0000 0.86954  0.50000  0.22128  Biso   1.000  H 
  O57      1.0000 0.78303  0.49425  0.11604  Biso   1.000  O 
  C44      1.0000 0.76752  0.50000  0.18442  Biso   1.000  C 
  C45      1.0000 0.70501  0.50000  0.20500  Biso   1.000  C 
  C46      1.0000 0.68442  0.50000  0.26751  Biso   1.000  C 
  C47      1.0000 0.73249  0.50000  0.31563  Biso   1.000  C 
  O58      1.0000 0.71440  0.49851  0.38199  Biso   1.000  O 
  H22      1.0000 0.63051  0.50000  0.27872  Biso   1.000  H 
  O59      1.0000 0.59530  0.50000  0.17046  Biso   1.000  O 
  C48      1.0000 0.65361  0.50000  0.15360  Biso   1.000  C 
  O60      1.0000 0.67047  0.50000  0.09529  Biso   1.000  O 
  H23      1.0000 0.77064  0.44930  0.10439  Biso   1.000  H 
  H24      1.0000 0.71889  0.45330  0.39690  Biso   1.000  H 
  C49      1.0000 0.34640  0.00000  0.34640  Biso   1.000  C 
  O61      1.0000 0.32954  0.00000  0.40471  Biso   1.000  O 
  O62      1.0000 0.40471  0.00000  0.32954  Biso   1.000  O 
  C50      1.0000 0.29500  0.00000  0.29500  Biso   1.000  C 
  C51      1.0000 0.31563  0.00000  0.23249  Biso   1.000  C 
  H25      1.0000 0.36954  0.00000  0.22128  Biso   1.000  H 
  O63      1.0000 0.28547  0.99423  0.11604  Biso   1.000  O 
  C52      1.0000 0.26751  0.00000  0.18442  Biso   1.000  C 
  C53      1.0000 0.20500  0.00000  0.20500  Biso   1.000  C 
  C54      1.0000 0.18442  0.00000  0.26751  Biso   1.000  C 
  C55      1.0000 0.23249  0.00000  0.31563  Biso   1.000  C 
  O64      1.0000 0.21725  0.00157  0.38319  Biso   1.000  O 
  H26      1.0000 0.13051  0.00000  0.27872  Biso   1.000  H 
  O65      1.0000 0.09530  0.00000  0.17046  Biso   1.000  O 
  C56      1.0000 0.15360  0.00000  0.15360  Biso   1.000  C 
  O66      1.0000 0.17046  0.00000  0.09529  Biso   1.000  O 
  H27      1.0000 0.29167  0.94671  0.11058  Biso   1.000  H 
  H28      1.0000 0.21030  0.04695  0.39600  Biso   1.000  H 
  C57      1.0000 0.34640  0.50000  0.84640  Biso   1.000  C 
  O67      1.0000 0.32954  0.50000  0.90471  Biso   1.000  O 
  O68      1.0000 0.40471  0.50000  0.82954  Biso   1.000  O 
  C58      1.0000 0.29500  0.50000  0.79500  Biso   1.000  C 
  C59      1.0000 0.31563  0.50000  0.73249  Biso   1.000  C 
  H29      1.0000 0.36954  0.50000  0.72128  Biso   1.000  H 
  O69      1.0000 0.28270  0.49431  0.61635  Biso   1.000  O 
  C60      1.0000 0.26751  0.50000  0.68442  Biso   1.000  C 
  C61      1.0000 0.20500  0.50000  0.70500  Biso   1.000  C 
  C62      1.0000 0.18442  0.50000  0.76751  Biso   1.000  C 
  C63      1.0000 0.23249  0.50000  0.81563  Biso   1.000  C 
  O70      1.0000 0.21719  0.50163  0.88325  Biso   1.000  O 
  H30      1.0000 0.13051  0.50000  0.77872  Biso   1.000  H 
  O71      1.0000 0.09530  0.50000  0.67046  Biso   1.000  O 
  C64      1.0000 0.15360  0.50000  0.65360  Biso   1.000  C 
  O72      1.0000 0.17046  0.50000  0.59529  Biso   1.000  O 
  H31      1.0000 0.27252  0.44928  0.60273  Biso   1.000  H 
  H32      1.0000 0.20838  0.54686  0.89550  Biso   1.000  H 
  C65      1.0000 0.84640  0.15360  0.00000  Biso   1.000  C 
  O73      1.0000 0.90471  0.17046  0.00000  Biso   1.000  O 
  O74      1.0000 0.82954  0.09529  0.00000  Biso   1.000  O 
  C66      1.0000 0.79500  0.20500  0.00000  Biso   1.000  C 
  C67      1.0000 0.73249  0.18437  0.00000  Biso   1.000  C 
  H33      1.0000 0.72128  0.13046  0.00000  Biso   1.000  H 
  O75      1.0000 0.61798  0.21360  0.00391  Biso   1.000  O 
  C68      1.0000 0.68442  0.23249  0.00000  Biso   1.000  C 
  C69      1.0000 0.70500  0.29500  0.00000  Biso   1.000  C 
  C70      1.0000 0.76751  0.31558  0.00000  Biso   1.000  C 
  C71      1.0000 0.81563  0.26751  0.00000  Biso   1.000  C 
  O76      1.0000 0.88192  0.28576  0.00141  Biso   1.000  O 
  H34      1.0000 0.77872  0.36949  0.00000  Biso   1.000  H 
  O77      1.0000 0.67046  0.40470  0.00000  Biso   1.000  O 
  C72      1.0000 0.65360  0.34640  0.00000  Biso   1.000  C 
  O78      1.0000 0.59529  0.32954  0.00000  Biso   1.000  O 
  H35      1.0000 0.60980  0.21161  0.05133  Biso   1.000  H 
  H36      1.0000 0.89698  0.28096  0.04648  Biso   1.000  H 
  C73      1.0000 0.84640  0.65360  0.50000  Biso   1.000  C 
  O79      1.0000 0.90471  0.67046  0.50000  Biso   1.000  O 
  O80      1.0000 0.82954  0.59529  0.50000  Biso   1.000  O 
  C74      1.0000 0.79500  0.70500  0.50000  Biso   1.000  C 
  C75      1.0000 0.73249  0.68437  0.50000  Biso   1.000  C 
  H37      1.0000 0.72128  0.63046  0.50000  Biso   1.000  H 
  O81      1.0000 0.61807  0.71308  0.50401  Biso   1.000  O 
  C76      1.0000 0.68442  0.73248  0.50000  Biso   1.000  C 
  C77      1.0000 0.70500  0.79499  0.50000  Biso   1.000  C 
  C78      1.0000 0.76751  0.81558  0.50000  Biso   1.000  C 
  C79      1.0000 0.81563  0.76751  0.50000  Biso   1.000  C 
  O82      1.0000 0.88221  0.78514  0.50145  Biso   1.000  O 
  H38      1.0000 0.77872  0.86949  0.50000  Biso   1.000  H 
  O83      1.0000 0.67046  0.90470  0.50000  Biso   1.000  O 
  C80      1.0000 0.65360  0.84639  0.50000  Biso   1.000  C 
  O84      1.0000 0.59529  0.82953  0.50000  Biso   1.000  O 
  H39      1.0000 0.61110  0.70779  0.55135  Biso   1.000  H 
  H40      1.0000 0.89646  0.78171  0.54703  Biso   1.000  H 
  C81      1.0000 0.34640  0.15360  0.50000  Biso   1.000  C 
  O85      1.0000 0.40471  0.17046  0.50000  Biso   1.000  O 
  O86      1.0000 0.32954  0.09529  0.50000  Biso   1.000  O 
  C82      1.0000 0.29500  0.20500  0.50000  Biso   1.000  C 
  C83      1.0000 0.23249  0.18437  0.50000  Biso   1.000  C 
  H41      1.0000 0.22128  0.13046  0.50000  Biso   1.000  H 
  O87      1.0000 0.11803  0.21325  0.50396  Biso   1.000  O 
  C84      1.0000 0.18442  0.23249  0.50000  Biso   1.000  C 
  C85      1.0000 0.20500  0.29500  0.50000  Biso   1.000  C 
  C86      1.0000 0.26751  0.31558  0.50000  Biso   1.000  C 
  C87      1.0000 0.31563  0.26751  0.50000  Biso   1.000  C 
  O88      1.0000 0.38321  0.28292  0.49833  Biso   1.000  O 
  H42      1.0000 0.27872  0.36949  0.50000  Biso   1.000  H 
  O89      1.0000 0.17046  0.40470  0.50000  Biso   1.000  O 
  C88      1.0000 0.15360  0.34640  0.50000  Biso   1.000  C 
  O90      1.0000 0.09529  0.32954  0.50000  Biso   1.000  O 
  H43      1.0000 0.11054  0.20908  0.55135  Biso   1.000  H 
  H44      1.0000 0.39507  0.29317  0.45329  Biso   1.000  H 
  C89      1.0000 0.34640  0.65360  0.00000  Biso   1.000  C 
  O91      1.0000 0.40471  0.67046  0.00000  Biso   1.000  O 
  O92      1.0000 0.32954  0.59529  0.00000  Biso   1.000  O 
  C90      1.0000 0.29500  0.70500  0.00000  Biso   1.000  C 
  C91      1.0000 0.23249  0.68437  0.00000  Biso   1.000  C 
  H45      1.0000 0.22128  0.63046  0.00000  Biso   1.000  H 
  O93      1.0000 0.11793  0.71395  0.00386  Biso   1.000  O 
  C92      1.0000 0.18442  0.73248  0.00000  Biso   1.000  C 
  C93      1.0000 0.20500  0.79499  0.00000  Biso   1.000  C 
  C94      1.0000 0.26751  0.81558  0.00000  Biso   1.000  C 
  C95      1.0000 0.31563  0.76751  0.00000  Biso   1.000  C 
  O94      1.0000 0.38317  0.78281  0.00166  Biso   1.000  O 
  H46      1.0000 0.27872  0.86949  0.00000  Biso   1.000  H 
  O95      1.0000 0.17046  0.90470  0.00000  Biso   1.000  O 
  C96      1.0000 0.15360  0.84639  0.00000  Biso   1.000  C 
  O96      1.0000 0.09529  0.82953  0.00000  Biso   1.000  O 
  H47      1.0000 0.10878  0.71469  0.05114  Biso   1.000  H 
  H48      1.0000 0.39571  0.79077  0.04695  Biso   1.000  H 
  C97      1.0000 0.84640  0.84640  0.00000  Biso   1.000  C 
  O97      1.0000 0.90471  0.82954  0.00000  Biso   1.000  O 
  O98      1.0000 0.82954  0.90471  0.00000  Biso   1.000  O 
  C98      1.0000 0.79500  0.79500  0.00000  Biso   1.000  C 
  C99      1.0000 0.73249  0.81563  0.00000  Biso   1.000  C 
  H49      1.0000 0.72128  0.86954  0.00000  Biso   1.000  H 
  O99      1.0000 0.61650  0.78590  0.99385  Biso   1.000  O 
  C100     1.0000 0.68442  0.76752  0.00000  Biso   1.000  C 
  C101     1.0000 0.70500  0.70501  0.00000  Biso   1.000  C 
  C102     1.0000 0.76751  0.68442  0.00000  Biso   1.000  C 
  C103     1.0000 0.81563  0.73249  0.00000  Biso   1.000  C 
  O100     1.0000 0.88309  0.71708  0.00151  Biso   1.000  O 
  H50      1.0000 0.77872  0.63051  0.00000  Biso   1.000  H 
  O101     1.0000 0.67046  0.59530  0.00000  Biso   1.000  O 
  C104     1.0000 0.65360  0.65361  0.00000  Biso   1.000  C 
  O102     1.0000 0.59529  0.67047  0.00000  Biso   1.000  O 
  H51      1.0000 0.61343  0.80501  0.95006  Biso   1.000  H 
  H52      1.0000 0.89627  0.71337  0.04719  Biso   1.000  H 
  C105     1.0000 0.84640  0.34640  0.50000  Biso   1.000  C 
  O103     1.0000 0.90471  0.32954  0.50000  Biso   1.000  O 
  O104     1.0000 0.82954  0.40471  0.50000  Biso   1.000  O 
  C106     1.0000 0.79500  0.29500  0.50000  Biso   1.000  C 
  C107     1.0000 0.73249  0.31563  0.50000  Biso   1.000  C 
  H53      1.0000 0.72128  0.36954  0.50000  Biso   1.000  H 
  O105     1.0000 0.61627  0.28264  0.49417  Biso   1.000  O 
  C108     1.0000 0.68442  0.26751  0.50000  Biso   1.000  C 
  C109     1.0000 0.70500  0.20500  0.50000  Biso   1.000  C 
  C110     1.0000 0.76751  0.18442  0.50000  Biso   1.000  C 
  C111     1.0000 0.81563  0.23249  0.50000  Biso   1.000  C 
  O106     1.0000 0.88392  0.21215  0.50205  Biso   1.000  O 
  H54      1.0000 0.77872  0.13051  0.50000  Biso   1.000  H 
  O107     1.0000 0.67046  0.09530  0.50000  Biso   1.000  O 
  C112     1.0000 0.65360  0.15360  0.50000  Biso   1.000  C 
  O108     1.0000 0.59529  0.17046  0.50000  Biso   1.000  O 
  H55      1.0000 0.60267  0.27022  0.44993  Biso   1.000  H 
  H56      1.0000 0.89240  0.21039  0.54920  Biso   1.000  H 
  C113     1.0000 0.34640  0.84640  0.50000  Biso   1.000  C 
  O109     1.0000 0.40471  0.82954  0.50000  Biso   1.000  O 
  O110     1.0000 0.32954  0.90471  0.50000  Biso   1.000  O 
  C114     1.0000 0.29500  0.79500  0.50000  Biso   1.000  C 
  C115     1.0000 0.23249  0.81563  0.50000  Biso   1.000  C 
  H57      1.0000 0.22128  0.86954  0.50000  Biso   1.000  H 
  O111     1.0000 0.11625  0.78268  0.49422  Biso   1.000  O 
  C116     1.0000 0.18442  0.76752  0.50000  Biso   1.000  C 
  C117     1.0000 0.20500  0.70501  0.50000  Biso   1.000  C 
  C118     1.0000 0.26751  0.68442  0.50000  Biso   1.000  C 
  C119     1.0000 0.31563  0.73249  0.50000  Biso   1.000  C 
  O112     1.0000 0.38198  0.71437  0.49857  Biso   1.000  O 
  H58      1.0000 0.27872  0.63051  0.50000  Biso   1.000  H 
  O113     1.0000 0.17046  0.59530  0.50000  Biso   1.000  O 
  C120     1.0000 0.15360  0.65361  0.50000  Biso   1.000  C 
  O114     1.0000 0.09529  0.67047  0.50000  Biso   1.000  O 
  H59      1.0000 0.10273  0.77056  0.44983  Biso   1.000  H 
  H60      1.0000 0.39694  0.71897  0.45339  Biso   1.000  H 
  C121     1.0000 0.34640  0.34640  0.00000  Biso   1.000  C 
  O115     1.0000 0.40471  0.32954  0.00000  Biso   1.000  O 
  O116     1.0000 0.32954  0.40471  0.00000  Biso   1.000  O 
  C122     1.0000 0.29500  0.29500  0.00000  Biso   1.000  C 
  C123     1.0000 0.23249  0.31563  0.00000  Biso   1.000  C 
  H61      1.0000 0.22128  0.36954  0.00000  Biso   1.000  H 
  O117     1.0000 0.11618  0.28576  0.99419  Biso   1.000  O 
  C124     1.0000 0.18442  0.26751  0.00000  Biso   1.000  C 
  C125     1.0000 0.20500  0.20500  0.00000  Biso   1.000  C 
  C126     1.0000 0.26751  0.18442  0.00000  Biso   1.000  C 
  C127     1.0000 0.31563  0.23249  0.00000  Biso   1.000  C 
  O118     1.0000 0.38203  0.21448  0.99851  Biso   1.000  O 
  H62      1.0000 0.27872  0.13051  0.00000  Biso   1.000  H 
  O119     1.0000 0.17046  0.09530  0.00000  Biso   1.000  O 
  C128     1.0000 0.15360  0.15360  0.00000  Biso   1.000  C 
  O120     1.0000 0.09529  0.17046  0.00000  Biso   1.000  O 
  H63      1.0000 0.11111  0.29601  0.94735  Biso   1.000  H 
  H64      1.0000 0.39684  0.21879  0.95322  Biso   1.000  H 
  C129     1.0000 0.00000  0.84640  0.15360  Biso   1.000  C 
  O121     1.0000 0.00000  0.90471  0.17046  Biso   1.000  O 
  O122     1.0000 0.00000  0.82954  0.09529  Biso   1.000  O 
  C130     1.0000 0.00000  0.79500  0.20500  Biso   1.000  C 
  C131     1.0000 0.00000  0.73249  0.18437  Biso   1.000  C 
  H65      1.0000 0.00000  0.72128  0.13046  Biso   1.000  H 
  O123     1.0000 0.00389  0.61796  0.21370  Biso   1.000  O 
  C132     1.0000 0.00000  0.68442  0.23249  Biso   1.000  C 
  C133     1.0000 0.00000  0.70500  0.29500  Biso   1.000  C 
  C134     1.0000 0.00000  0.76751  0.31558  Biso   1.000  C 
  C135     1.0000 0.00000  0.81563  0.26751  Biso   1.000  C 
  O124     1.0000 0.00240  0.88446  0.28841  Biso   1.000  O 
  H66      1.0000 0.00000  0.77872  0.36949  Biso   1.000  H 
  O125     1.0000 0.00000  0.67046  0.40470  Biso   1.000  O 
  C136     1.0000 0.00000  0.65360  0.34640  Biso   1.000  C 
  O126     1.0000 0.00000  0.59529  0.32954  Biso   1.000  O 
  H67      1.0000 0.05128  0.60940  0.21258  Biso   1.000  H 
  H68      1.0000 0.04958  0.89257  0.29137  Biso   1.000  H 
  C137     1.0000 0.00000  0.34640  0.65360  Biso   1.000  C 
  O127     1.0000 0.00000  0.40471  0.67046  Biso   1.000  O 
  O128     1.0000 0.00000  0.32954  0.59529  Biso   1.000  O 
  C138     1.0000 0.00000  0.29500  0.70500  Biso   1.000  C 
  C139     1.0000 0.00000  0.23249  0.68437  Biso   1.000  C 
  H69      1.0000 0.00000  0.22128  0.63046  Biso   1.000  H 
  O129     1.0000 0.00388  0.11796  0.71379  Biso   1.000  O 
  C140     1.0000 0.00000  0.18442  0.73248  Biso   1.000  C 
  C141     1.0000 0.00000  0.20500  0.79499  Biso   1.000  C 
  C142     1.0000 0.00000  0.26751  0.81558  Biso   1.000  C 
  C143     1.0000 0.00000  0.31563  0.76751  Biso   1.000  C 
  O130     1.0000 0.99830  0.38333  0.78353  Biso   1.000  O 
  H70      1.0000 0.00000  0.27872  0.86949  Biso   1.000  H 
  O131     1.0000 0.00000  0.17046  0.90470  Biso   1.000  O 
  C144     1.0000 0.00000  0.15360  0.84639  Biso   1.000  C 
  O132     1.0000 0.00000  0.09529  0.82953  Biso   1.000  O 
  H71      1.0000 0.05123  0.10914  0.71339  Biso   1.000  H 
  H72      1.0000 0.95321  0.39303  0.79610  Biso   1.000  H 
  C145     1.0000 0.50000  0.84640  0.65360  Biso   1.000  C 
  O133     1.0000 0.50000  0.90471  0.67046  Biso   1.000  O 
  O134     1.0000 0.50000  0.82954  0.59529  Biso   1.000  O 
  C146     1.0000 0.50000  0.79500  0.70500  Biso   1.000  C 
  C147     1.0000 0.50000  0.73249  0.68437  Biso   1.000  C 
  H73      1.0000 0.50000  0.72128  0.63046  Biso   1.000  H 
  O135     1.0000 0.50396  0.61802  0.71333  Biso   1.000  O 
  C148     1.0000 0.50000  0.68442  0.73248  Biso   1.000  C 
  C149     1.0000 0.50000  0.70500  0.79499  Biso   1.000  C 
  C150     1.0000 0.50000  0.76751  0.81558  Biso   1.000  C 
  C151     1.0000 0.50000  0.81563  0.76751  Biso   1.000  C 
  O136     1.0000 0.50147  0.88220  0.78516  Biso   1.000  O 
  H74      1.0000 0.50000  0.77872  0.86949  Biso   1.000  H 
  O137     1.0000 0.50000  0.67046  0.90470  Biso   1.000  O 
  C152     1.0000 0.50000  0.65360  0.84639  Biso   1.000  C 
  O138     1.0000 0.50000  0.59529  0.82953  Biso   1.000  O 
  H75      1.0000 0.55137  0.61040  0.70966  Biso   1.000  H 
  H76      1.0000 0.54702  0.89651  0.78154  Biso   1.000  H 
  C153     1.0000 0.50000  0.34640  0.15360  Biso   1.000  C 
  O139     1.0000 0.50000  0.40471  0.17046  Biso   1.000  O 
  O140     1.0000 0.50000  0.32954  0.09529  Biso   1.000  O 
  C154     1.0000 0.50000  0.29500  0.20500  Biso   1.000  C 
  C155     1.0000 0.50000  0.23249  0.18437  Biso   1.000  C 
  H77      1.0000 0.50000  0.22128  0.13046  Biso   1.000  H 
  O141     1.0000 0.50390  0.11796  0.21363  Biso   1.000  O 
  C156     1.0000 0.50000  0.18442  0.23249  Biso   1.000  C 
  C157     1.0000 0.50000  0.20500  0.29500  Biso   1.000  C 
  C158     1.0000 0.50000  0.26751  0.31558  Biso   1.000  C 
  C159     1.0000 0.50000  0.31563  0.26751  Biso   1.000  C 
  O142     1.0000 0.50145  0.38195  0.28569  Biso   1.000  O 
  H78      1.0000 0.50000  0.27872  0.36949  Biso   1.000  H 
  O143     1.0000 0.50000  0.17046  0.40470  Biso   1.000  O 
  C160     1.0000 0.50000  0.15360  0.34640  Biso   1.000  C 
  O144     1.0000 0.50000  0.09529  0.32954  Biso   1.000  O 
  H79      1.0000 0.55132  0.10973  0.21179  Biso   1.000  H 
  H80      1.0000 0.54659  0.39694  0.28106  Biso   1.000  H 
  C161     1.0000 0.00000  0.84640  0.84640  Biso   1.000  C 
  O145     1.0000 0.00000  0.90471  0.82954  Biso   1.000  O 
  O146     1.0000 0.00000  0.82954  0.90471  Biso   1.000  O 
  C162     1.0000 0.00000  0.79500  0.79500  Biso   1.000  C 
  C163     1.0000 0.00000  0.73249  0.81563  Biso   1.000  C 
  H81      1.0000 0.00000  0.72128  0.86954  Biso   1.000  H 
  O147     1.0000 0.99431  0.61599  0.78316  Biso   1.000  O 
  C164     1.0000 0.00000  0.68442  0.76752  Biso   1.000  C 
  C165     1.0000 0.00000  0.70500  0.70501  Biso   1.000  C 
  C166     1.0000 0.00000  0.76751  0.68442  Biso   1.000  C 
  C167     1.0000 0.00000  0.81563  0.73249  Biso   1.000  C 
  O148     1.0000 0.99853  0.88235  0.71513  Biso   1.000  O 
  H82      1.0000 0.00000  0.77872  0.63051  Biso   1.000  H 
  O149     1.0000 0.00000  0.67046  0.59530  Biso   1.000  O 
  C168     1.0000 0.00000  0.65360  0.65361  Biso   1.000  C 
  O150     1.0000 0.00000  0.59529  0.67047  Biso   1.000  O 
  H83      1.0000 0.94904  0.60489  0.77125  Biso   1.000  H 
  H84      1.0000 0.95280  0.89622  0.71809  Biso   1.000  H 
  C169     1.0000 0.00000  0.34640  0.34640  Biso   1.000  C 
  O151     1.0000 0.00000  0.40471  0.32954  Biso   1.000  O 
  O152     1.0000 0.00000  0.32954  0.40471  Biso   1.000  O 
  C170     1.0000 0.00000  0.29500  0.29500  Biso   1.000  C 
  C171     1.0000 0.00000  0.23249  0.31563  Biso   1.000  C 
  H85      1.0000 0.00000  0.22128  0.36954  Biso   1.000  H 
  O153     1.0000 0.99423  0.11613  0.28569  Biso   1.000  O 
  C172     1.0000 0.00000  0.18442  0.26751  Biso   1.000  C 
  C173     1.0000 0.00000  0.20500  0.20500  Biso   1.000  C 
  C174     1.0000 0.00000  0.26751  0.18442  Biso   1.000  C 
  C175     1.0000 0.00000  0.31563  0.23249  Biso   1.000  C 
  O154     1.0000 0.00158  0.38320  0.21725  Biso   1.000  O 
  H86      1.0000 0.00000  0.27872  0.13051  Biso   1.000  H 
  O155     1.0000 0.00000  0.17046  0.09530  Biso   1.000  O 
  C176     1.0000 0.00000  0.15360  0.15360  Biso   1.000  C 
  O156     1.0000 0.00000  0.09529  0.17046  Biso   1.000  O 
  H87      1.0000 0.94711  0.11089  0.29456  Biso   1.000  H 
  H88      1.0000 0.04692  0.39592  0.20984  Biso   1.000  H 
  C177     1.0000 0.50000  0.84640  0.34640  Biso   1.000  C 
  O157     1.0000 0.50000  0.90471  0.32954  Biso   1.000  O 
  O158     1.0000 0.50000  0.82954  0.40471  Biso   1.000  O 
  C178     1.0000 0.50000  0.79500  0.29500  Biso   1.000  C 
  C179     1.0000 0.50000  0.73249  0.31563  Biso   1.000  C 
  H89      1.0000 0.50000  0.72128  0.36954  Biso   1.000  H 
  O159     1.0000 0.49428  0.61599  0.28534  Biso   1.000  O 
  C180     1.0000 0.50000  0.68442  0.26751  Biso   1.000  C 
  C181     1.0000 0.50000  0.70500  0.20500  Biso   1.000  C 
  C182     1.0000 0.50000  0.76751  0.18442  Biso   1.000  C 
  C183     1.0000 0.50000  0.81563  0.23249  Biso   1.000  C 
  O160     1.0000 0.50186  0.88361  0.21233  Biso   1.000  O 
  H90      1.0000 0.50000  0.77872  0.13051  Biso   1.000  H 
  O161     1.0000 0.50000  0.67046  0.09530  Biso   1.000  O 
  C184     1.0000 0.50000  0.65360  0.15360  Biso   1.000  C 
  O162     1.0000 0.50000  0.59529  0.17046  Biso   1.000  O 
  H91      1.0000 0.44663  0.61056  0.29037  Biso   1.000  H 
  H92      1.0000 0.54874  0.89051  0.20561  Biso   1.000  H 
  C185     1.0000 0.50000  0.34640  0.84640  Biso   1.000  C 
  O163     1.0000 0.50000  0.40471  0.82954  Biso   1.000  O 
  O164     1.0000 0.50000  0.32954  0.90471  Biso   1.000  O 
  C186     1.0000 0.50000  0.29500  0.79500  Biso   1.000  C 
  C187     1.0000 0.50000  0.23249  0.81563  Biso   1.000  C 
  H93      1.0000 0.50000  0.22128  0.86954  Biso   1.000  H 
  O165     1.0000 0.49417  0.11619  0.78275  Biso   1.000  O 
  C188     1.0000 0.50000  0.18442  0.76752  Biso   1.000  C 
  C189     1.0000 0.50000  0.20500  0.70501  Biso   1.000  C 
  C190     1.0000 0.50000  0.26751  0.68442  Biso   1.000  C 
  C191     1.0000 0.50000  0.31563  0.73249  Biso   1.000  C 
  O166     1.0000 0.49828  0.38335  0.71632  Biso   1.000  O 
  H94      1.0000 0.50000  0.27872  0.63051  Biso   1.000  H 
  O167     1.0000 0.50000  0.17046  0.59530  Biso   1.000  O 
  C192     1.0000 0.50000  0.15360  0.65361  Biso   1.000  C 
  O168     1.0000 0.50000  0.09529  0.67047  Biso   1.000  O 
  H95      1.0000 0.44979  0.10330  0.77003  Biso   1.000  H 
  H96      1.0000 0.45319  0.39252  0.70327  Biso   1.000  H 
