data_image0
_cell_length_a       20.7004
_cell_length_b       20.7004
_cell_length_c       20.7004
_cell_angle_alpha    90
_cell_angle_beta     90
_cell_angle_gamma    90

_symmetry_space_group_name_H-M    "P 1"
_symmetry_int_tables_number       1

loop_
  _symmetry_equiv_pos_as_xyz
  'x, y, z'

loop_
  _atom_site_label
  _atom_site_occupancy
  _atom_site_fract_x
  _atom_site_fract_y
  _atom_site_fract_z
  _atom_site_thermal_displace_type
  _atom_site_B_iso_or_equiv
  _atom_site_type_symbol
  Zr1      1.0000 0.11989  0.00000  0.00000  Biso   1.000  Zr
  Zr2      1.0000 0.11989  0.50000  0.50000  Biso   1.000  Zr
  Zr3      1.0000 0.61989  0.00000  0.50000  Biso   1.000  Zr
  Zr4      1.0000 0.61989  0.50000  0.00000  Biso   1.000  Zr
  Zr5      1.0000 0.88011  0.00000  0.00000  Biso   1.000  Zr
  Zr6      1.0000 0.88011  0.50000  0.50000  Biso   1.000  Zr
  Zr7      1.0000 0.38011  0.00000  0.50000  Biso   1.000  Zr
  Zr8      1.0000 0.38011  0.50000  0.00000  Biso   1.000  Zr
  Zr9      1.0000 0.00000  0.11989  0.00000  Biso   1.000  Zr
  Zr10     1.0000 0.00000  0.61989  0.50000  Biso   1.000  Zr
  Zr11     1.0000 0.50000  0.11989  0.50000  Biso   1.000  Zr
  Zr12     1.0000 0.50000  0.61989  0.00000  Biso   1.000  Zr
  Zr13     1.0000 0.00000  0.88011  0.00000  Biso   1.000  Zr
  Zr14     1.0000 0.00000  0.38011  0.50000  Biso   1.000  Zr
  Zr15     1.0000 0.50000  0.88011  0.50000  Biso   1.000  Zr
  Zr16     1.0000 0.50000  0.38011  0.00000  Biso   1.000  Zr
  Zr17     1.0000 0.00000  0.00000  0.11989  Biso   1.000  Zr
  Zr18     1.0000 0.00000  0.50000  0.61989  Biso   1.000  Zr
  Zr19     1.0000 0.50000  0.00000  0.61989  Biso   1.000  Zr
  Zr20     1.0000 0.50000  0.50000  0.11989  Biso   1.000  Zr
  Zr21     1.0000 0.00000  0.00000  0.88011  Biso   1.000  Zr
  Zr22     1.0000 0.00000  0.50000  0.38011  Biso   1.000  Zr
  Zr23     1.0000 0.50000  0.00000  0.38011  Biso   1.000  Zr
  Zr24     1.0000 0.50000  0.50000  0.88011  Biso   1.000  Zr
  O1       1.0000 0.05610  0.44390  0.44390  Biso   1.000  O 
  O2       1.0000 0.55610  0.94390  0.44390  Biso   1.000  O 
  O3       1.0000 0.55610  0.44390  0.94390  Biso   1.000  O 
  O4       1.0000 0.44390  0.05610  0.44390  Biso   1.000  O 
  O5       1.0000 0.44390  0.55610  0.94390  Biso   1.000  O 
  O6       1.0000 0.94390  0.94390  0.05610  Biso   1.000  O 
  O7       1.0000 0.94390  0.44390  0.55610  Biso   1.000  O 
  O8       1.0000 0.05610  0.05610  0.05610  Biso   1.000  O 
  O9       1.0000 0.55610  0.55610  0.05610  Biso   1.000  O 
  O10      1.0000 0.94390  0.05610  0.05610  Biso   1.000  O 
  O11      1.0000 0.94390  0.55610  0.55610  Biso   1.000  O 
  O12      1.0000 0.44390  0.05610  0.55610  Biso   1.000  O 
  O13      1.0000 0.44390  0.55610  0.05610  Biso   1.000  O 
  O14      1.0000 0.05610  0.94390  0.05610  Biso   1.000  O 
  O15      1.0000 0.05610  0.44390  0.55610  Biso   1.000  O 
  O16      1.0000 0.55610  0.94390  0.55610  Biso   1.000  O 
  O17      1.0000 0.55610  0.44390  0.05610  Biso   1.000  O 
  O18      1.0000 0.94390  0.94390  0.94390  Biso   1.000  O 
  O19      1.0000 0.94390  0.44390  0.44390  Biso   1.000  O 
  O20      1.0000 0.44390  0.94390  0.44390  Biso   1.000  O 
  O21      1.0000 0.44390  0.44390  0.94390  Biso   1.000  O 
  O22      1.0000 0.05610  0.05610  0.94390  Biso   1.000  O 
  O23      1.0000 0.05610  0.55610  0.44390  Biso   1.000  O 
  O24      1.0000 0.55610  0.05610  0.44390  Biso   1.000  O 
  C1       1.0000 0.15360  0.00000  0.84640  Biso   1.000  C 
  O25      1.0000 0.17046  0.00000  0.90471  Biso   1.000  O 
  O26      1.0000 0.09529  0.00000  0.82954  Biso   1.000  O 
  C2       1.0000 0.20500  0.00000  0.79500  Biso   1.000  C 
  C3       1.0000 0.18437  0.00000  0.73249  Biso   1.000  C 
  N1       1.0000 0.11454  0.00841  0.71449  Biso   1.000  N 
  H1       1.0000 0.22128  0.00000  0.63051  Biso   1.000  H 
  C4       1.0000 0.23249  0.00000  0.68442  Biso   1.000  C 
  C5       1.0000 0.29500  0.00000  0.70500  Biso   1.000  C 
  C6       1.0000 0.31558  0.00000  0.76751  Biso   1.000  C 
  C7       1.0000 0.26751  0.00000  0.81563  Biso   1.000  C 
  H2       1.0000 0.27872  0.00000  0.86954  Biso   1.000  H 
  H3       1.0000 0.36949  0.00000  0.77872  Biso   1.000  H 
  O27      1.0000 0.40470  0.00000  0.67046  Biso   1.000  O 
  C8       1.0000 0.34640  0.00000  0.65360  Biso   1.000  C 
  O28      1.0000 0.32954  0.00000  0.59529  Biso   1.000  O 
  N2       1.0000 0.10225  0.00724  0.65681  Biso   1.000  N 
  N3       1.0000 0.08871  0.00541  0.60094  Biso   1.000  N 
  C9       1.0000 0.15360  0.50000  0.34640  Biso   1.000  C 
  O29      1.0000 0.17046  0.50000  0.40471  Biso   1.000  O 
  O30      1.0000 0.09529  0.50000  0.32954  Biso   1.000  O 
  C10      1.0000 0.20500  0.50000  0.29500  Biso   1.000  C 
  C11      1.0000 0.18437  0.50000  0.23249  Biso   1.000  C 
  N4       1.0000 0.11453  0.50846  0.21450  Biso   1.000  N 
  H4       1.0000 0.22128  0.50000  0.13051  Biso   1.000  H 
  C12      1.0000 0.23249  0.50000  0.18442  Biso   1.000  C 
  C13      1.0000 0.29500  0.50000  0.20500  Biso   1.000  C 
  C14      1.0000 0.31558  0.50000  0.26751  Biso   1.000  C 
  C15      1.0000 0.26751  0.50000  0.31563  Biso   1.000  C 
  H5       1.0000 0.27872  0.50000  0.36954  Biso   1.000  H 
  H6       1.0000 0.36949  0.50000  0.27872  Biso   1.000  H 
  O31      1.0000 0.40470  0.50000  0.17046  Biso   1.000  O 
  C16      1.0000 0.34640  0.50000  0.15360  Biso   1.000  C 
  O32      1.0000 0.32954  0.50000  0.09529  Biso   1.000  O 
  N5       1.0000 0.10218  0.50713  0.15683  Biso   1.000  N 
  N6       1.0000 0.08860  0.50514  0.10097  Biso   1.000  N 
  C17      1.0000 0.65360  0.00000  0.34640  Biso   1.000  C 
  O33      1.0000 0.67046  0.00000  0.40471  Biso   1.000  O 
  O34      1.0000 0.59529  0.00000  0.32954  Biso   1.000  O 
  C18      1.0000 0.70500  0.00000  0.29500  Biso   1.000  C 
  C19      1.0000 0.68437  0.00000  0.23249  Biso   1.000  C 
  N7       1.0000 0.61455  0.00864  0.21452  Biso   1.000  N 
  H7       1.0000 0.72128  0.00000  0.13051  Biso   1.000  H 
  C20      1.0000 0.73248  0.00000  0.18442  Biso   1.000  C 
  C21      1.0000 0.79499  0.00000  0.20500  Biso   1.000  C 
  C22      1.0000 0.81558  0.00000  0.26751  Biso   1.000  C 
  C23      1.0000 0.76751  0.00000  0.31563  Biso   1.000  C 
  H8       1.0000 0.77872  0.00000  0.36954  Biso   1.000  H 
  H9       1.0000 0.86949  0.00000  0.27872  Biso   1.000  H 
  O35      1.0000 0.90470  0.00000  0.17046  Biso   1.000  O 
  C24      1.0000 0.84639  0.00000  0.15360  Biso   1.000  C 
  O36      1.0000 0.82953  0.00000  0.09529  Biso   1.000  O 
  N8       1.0000 0.60222  0.00733  0.15686  Biso   1.000  N 
  N9       1.0000 0.58867  0.00535  0.10100  Biso   1.000  N 
  C25      1.0000 0.65360  0.50000  0.84640  Biso   1.000  C 
  O37      1.0000 0.67046  0.50000  0.90471  Biso   1.000  O 
  O38      1.0000 0.59529  0.50000  0.82954  Biso   1.000  O 
  C26      1.0000 0.70500  0.50000  0.79500  Biso   1.000  C 
  C27      1.0000 0.68437  0.50000  0.73249  Biso   1.000  C 
  N10      1.0000 0.61455  0.50860  0.71453  Biso   1.000  N 
  H10      1.0000 0.72128  0.50000  0.63051  Biso   1.000  H 
  C28      1.0000 0.73248  0.50000  0.68442  Biso   1.000  C 
  C29      1.0000 0.79499  0.50000  0.70500  Biso   1.000  C 
  C30      1.0000 0.81558  0.50000  0.76751  Biso   1.000  C 
  C31      1.0000 0.76751  0.50000  0.81563  Biso   1.000  C 
  H11      1.0000 0.77872  0.50000  0.86954  Biso   1.000  H 
  H12      1.0000 0.86949  0.50000  0.77872  Biso   1.000  H 
  O39      1.0000 0.90470  0.50000  0.67046  Biso   1.000  O 
  C32      1.0000 0.84639  0.50000  0.65360  Biso   1.000  C 
  O40      1.0000 0.82953  0.50000  0.59529  Biso   1.000  O 
  N11      1.0000 0.60225  0.50744  0.65686  Biso   1.000  N 
  N12      1.0000 0.58874  0.50559  0.60099  Biso   1.000  N 
  C33      1.0000 0.84640  0.00000  0.84640  Biso   1.000  C 
  O41      1.0000 0.82954  0.00000  0.90471  Biso   1.000  O 
  O42      1.0000 0.90471  0.00000  0.82954  Biso   1.000  O 
  C34      1.0000 0.79500  0.00000  0.79500  Biso   1.000  C 
  C35      1.0000 0.81563  0.00000  0.73249  Biso   1.000  C 
  N13      1.0000 0.88569  0.99784  0.71278  Biso   1.000  N 
  H13      1.0000 0.77872  0.00000  0.63051  Biso   1.000  H 
  C36      1.0000 0.76752  0.00000  0.68442  Biso   1.000  C 
  C37      1.0000 0.70501  0.00000  0.70500  Biso   1.000  C 
  C38      1.0000 0.68442  0.00000  0.76751  Biso   1.000  C 
  C39      1.0000 0.73249  0.00000  0.81563  Biso   1.000  C 
  H14      1.0000 0.72128  0.00000  0.86954  Biso   1.000  H 
  H15      1.0000 0.63051  0.00000  0.77872  Biso   1.000  H 
  O43      1.0000 0.59530  0.00000  0.67046  Biso   1.000  O 
  C40      1.0000 0.65361  0.00000  0.65360  Biso   1.000  C 
  O44      1.0000 0.67047  0.00000  0.59529  Biso   1.000  O 
  N14      1.0000 0.89821  0.96500  0.66491  Biso   1.000  N 
  N15      1.0000 0.91261  0.93306  0.61893  Biso   1.000  N 
  C41      1.0000 0.84640  0.50000  0.34640  Biso   1.000  C 
  O45      1.0000 0.82954  0.50000  0.40471  Biso   1.000  O 
  O46      1.0000 0.90471  0.50000  0.32954  Biso   1.000  O 
  C42      1.0000 0.79500  0.50000  0.29500  Biso   1.000  C 
  C43      1.0000 0.81563  0.50000  0.23249  Biso   1.000  C 
  N16      1.0000 0.88572  0.49794  0.21282  Biso   1.000  N 
  H16      1.0000 0.77872  0.50000  0.13051  Biso   1.000  H 
  C44      1.0000 0.76752  0.50000  0.18442  Biso   1.000  C 
  C45      1.0000 0.70501  0.50000  0.20500  Biso   1.000  C 
  C46      1.0000 0.68442  0.50000  0.26751  Biso   1.000  C 
  C47      1.0000 0.73249  0.50000  0.31563  Biso   1.000  C 
  H17      1.0000 0.72128  0.50000  0.36954  Biso   1.000  H 
  H18      1.0000 0.63051  0.50000  0.27872  Biso   1.000  H 
  O47      1.0000 0.59530  0.50000  0.17046  Biso   1.000  O 
  C48      1.0000 0.65361  0.50000  0.15360  Biso   1.000  C 
  O48      1.0000 0.67047  0.50000  0.09529  Biso   1.000  O 
  N17      1.0000 0.89835  0.46512  0.16497  Biso   1.000  N 
  N18      1.0000 0.91286  0.43322  0.11900  Biso   1.000  N 
  C49      1.0000 0.34640  0.00000  0.34640  Biso   1.000  C 
  O49      1.0000 0.32954  0.00000  0.40471  Biso   1.000  O 
  O50      1.0000 0.40471  0.00000  0.32954  Biso   1.000  O 
  C50      1.0000 0.29500  0.00000  0.29500  Biso   1.000  C 
  C51      1.0000 0.31563  0.00000  0.23249  Biso   1.000  C 
  N19      1.0000 0.38577  0.99822  0.21288  Biso   1.000  N 
  H19      1.0000 0.27872  0.00000  0.13051  Biso   1.000  H 
  C52      1.0000 0.26751  0.00000  0.18442  Biso   1.000  C 
  C53      1.0000 0.20500  0.00000  0.20500  Biso   1.000  C 
  C54      1.0000 0.18442  0.00000  0.26751  Biso   1.000  C 
  C55      1.0000 0.23249  0.00000  0.31563  Biso   1.000  C 
  H20      1.0000 0.22128  0.00000  0.36954  Biso   1.000  H 
  H21      1.0000 0.13051  0.00000  0.27872  Biso   1.000  H 
  O51      1.0000 0.09530  0.00000  0.17046  Biso   1.000  O 
  C56      1.0000 0.15360  0.00000  0.15360  Biso   1.000  C 
  O52      1.0000 0.17046  0.00000  0.09529  Biso   1.000  O 
  N20      1.0000 0.39864  0.96572  0.16489  Biso   1.000  N 
  N21      1.0000 0.41337  0.93414  0.11876  Biso   1.000  N 
  C57      1.0000 0.34640  0.50000  0.84640  Biso   1.000  C 
  O53      1.0000 0.32954  0.50000  0.90471  Biso   1.000  O 
  O54      1.0000 0.40471  0.50000  0.82954  Biso   1.000  O 
  C58      1.0000 0.29500  0.50000  0.79500  Biso   1.000  C 
  C59      1.0000 0.31563  0.50000  0.73249  Biso   1.000  C 
  N22      1.0000 0.38574  0.49807  0.71285  Biso   1.000  N 
  H22      1.0000 0.27872  0.50000  0.63051  Biso   1.000  H 
  C60      1.0000 0.26751  0.50000  0.68442  Biso   1.000  C 
  C61      1.0000 0.20500  0.50000  0.70500  Biso   1.000  C 
  C62      1.0000 0.18442  0.50000  0.76751  Biso   1.000  C 
  C63      1.0000 0.23249  0.50000  0.81563  Biso   1.000  C 
  H23      1.0000 0.22128  0.50000  0.86954  Biso   1.000  H 
  H24      1.0000 0.13051  0.50000  0.77872  Biso   1.000  H 
  O55      1.0000 0.09530  0.50000  0.67046  Biso   1.000  O 
  C64      1.0000 0.15360  0.50000  0.65360  Biso   1.000  C 
  O56      1.0000 0.17046  0.50000  0.59529  Biso   1.000  O 
  N23      1.0000 0.39848  0.46539  0.66494  Biso   1.000  N 
  N24      1.0000 0.41308  0.43363  0.61890  Biso   1.000  N 
  C65      1.0000 0.84640  0.15360  0.00000  Biso   1.000  C 
  O57      1.0000 0.90471  0.17046  0.00000  Biso   1.000  O 
  O58      1.0000 0.82954  0.09529  0.00000  Biso   1.000  O 
  C66      1.0000 0.79500  0.20500  0.00000  Biso   1.000  C 
  C67      1.0000 0.73249  0.18437  0.00000  Biso   1.000  C 
  N25      1.0000 0.71450  0.11455  0.00861  Biso   1.000  N 
  H25      1.0000 0.63051  0.22128  0.00000  Biso   1.000  H 
  C68      1.0000 0.68442  0.23249  0.00000  Biso   1.000  C 
  C69      1.0000 0.70500  0.29500  0.00000  Biso   1.000  C 
  C70      1.0000 0.76751  0.31558  0.00000  Biso   1.000  C 
  C71      1.0000 0.81563  0.26751  0.00000  Biso   1.000  C 
  H26      1.0000 0.86954  0.27872  0.00000  Biso   1.000  H 
  H27      1.0000 0.77872  0.36949  0.00000  Biso   1.000  H 
  O59      1.0000 0.67046  0.40470  0.00000  Biso   1.000  O 
  C72      1.0000 0.65360  0.34640  0.00000  Biso   1.000  C 
  O60      1.0000 0.59529  0.32954  0.00000  Biso   1.000  O 
  N26      1.0000 0.65683  0.10224  0.00732  Biso   1.000  N 
  N27      1.0000 0.60096  0.08869  0.00534  Biso   1.000  N 
  C73      1.0000 0.84640  0.65360  0.50000  Biso   1.000  C 
  O61      1.0000 0.90471  0.67046  0.50000  Biso   1.000  O 
  O62      1.0000 0.82954  0.59529  0.50000  Biso   1.000  O 
  C74      1.0000 0.79500  0.70500  0.50000  Biso   1.000  C 
  C75      1.0000 0.73249  0.68437  0.50000  Biso   1.000  C 
  N28      1.0000 0.71450  0.61455  0.50859  Biso   1.000  N 
  H28      1.0000 0.63051  0.72128  0.50000  Biso   1.000  H 
  C76      1.0000 0.68442  0.73248  0.50000  Biso   1.000  C 
  C77      1.0000 0.70500  0.79499  0.50000  Biso   1.000  C 
  C78      1.0000 0.76751  0.81558  0.50000  Biso   1.000  C 
  C79      1.0000 0.81563  0.76751  0.50000  Biso   1.000  C 
  H29      1.0000 0.86954  0.77872  0.50000  Biso   1.000  H 
  H30      1.0000 0.77872  0.86949  0.50000  Biso   1.000  H 
  O63      1.0000 0.67046  0.90470  0.50000  Biso   1.000  O 
  C80      1.0000 0.65360  0.84639  0.50000  Biso   1.000  C 
  O64      1.0000 0.59529  0.82953  0.50000  Biso   1.000  O 
  N29      1.0000 0.65683  0.60223  0.50730  Biso   1.000  N 
  N30      1.0000 0.60095  0.58871  0.50532  Biso   1.000  N 
  C81      1.0000 0.34640  0.15360  0.50000  Biso   1.000  C 
  O65      1.0000 0.40471  0.17046  0.50000  Biso   1.000  O 
  O66      1.0000 0.32954  0.09529  0.50000  Biso   1.000  O 
  C82      1.0000 0.29500  0.20500  0.50000  Biso   1.000  C 
  C83      1.0000 0.23249  0.18437  0.50000  Biso   1.000  C 
  N31      1.0000 0.21453  0.11456  0.50863  Biso   1.000  N 
  H31      1.0000 0.13051  0.22128  0.50000  Biso   1.000  H 
  C84      1.0000 0.18442  0.23249  0.50000  Biso   1.000  C 
  C85      1.0000 0.20500  0.29500  0.50000  Biso   1.000  C 
  C86      1.0000 0.26751  0.31558  0.50000  Biso   1.000  C 
  C87      1.0000 0.31563  0.26751  0.50000  Biso   1.000  C 
  H32      1.0000 0.36954  0.27872  0.50000  Biso   1.000  H 
  H33      1.0000 0.27872  0.36949  0.50000  Biso   1.000  H 
  O67      1.0000 0.17046  0.40470  0.50000  Biso   1.000  O 
  C88      1.0000 0.15360  0.34640  0.50000  Biso   1.000  C 
  O68      1.0000 0.09529  0.32954  0.50000  Biso   1.000  O 
  N32      1.0000 0.15686  0.10229  0.50759  Biso   1.000  N 
  N33      1.0000 0.10097  0.08883  0.50586  Biso   1.000  N 
  C89      1.0000 0.34640  0.65360  0.00000  Biso   1.000  C 
  O69      1.0000 0.40471  0.67046  0.00000  Biso   1.000  O 
  O70      1.0000 0.32954  0.59529  0.00000  Biso   1.000  O 
  C90      1.0000 0.29500  0.70500  0.00000  Biso   1.000  C 
  C91      1.0000 0.23249  0.68437  0.00000  Biso   1.000  C 
  N34      1.0000 0.21449  0.61453  0.00842  Biso   1.000  N 
  H34      1.0000 0.13051  0.72128  0.00000  Biso   1.000  H 
  C92      1.0000 0.18442  0.73248  0.00000  Biso   1.000  C 
  C93      1.0000 0.20500  0.79499  0.00000  Biso   1.000  C 
  C94      1.0000 0.26751  0.81558  0.00000  Biso   1.000  C 
  C95      1.0000 0.31563  0.76751  0.00000  Biso   1.000  C 
  H35      1.0000 0.36954  0.77872  0.00000  Biso   1.000  H 
  H36      1.0000 0.27872  0.86949  0.00000  Biso   1.000  H 
  O71      1.0000 0.17046  0.90470  0.00000  Biso   1.000  O 
  C96      1.0000 0.15360  0.84639  0.00000  Biso   1.000  C 
  O72      1.0000 0.09529  0.82953  0.00000  Biso   1.000  O 
  N35      1.0000 0.15682  0.60219  0.00711  Biso   1.000  N 
  N36      1.0000 0.10095  0.58862  0.00516  Biso   1.000  N 
  C97      1.0000 0.84640  0.84640  0.00000  Biso   1.000  C 
  O73      1.0000 0.90471  0.82954  0.00000  Biso   1.000  O 
  O74      1.0000 0.82954  0.90471  0.00000  Biso   1.000  O 
  C98      1.0000 0.79500  0.79500  0.00000  Biso   1.000  C 
  C99      1.0000 0.73249  0.81563  0.00000  Biso   1.000  C 
  N37      1.0000 0.71285  0.88576  0.99816  Biso   1.000  N 
  H37      1.0000 0.63051  0.77872  0.00000  Biso   1.000  H 
  C100     1.0000 0.68442  0.76752  0.00000  Biso   1.000  C 
  C101     1.0000 0.70500  0.70501  0.00000  Biso   1.000  C 
  C102     1.0000 0.76751  0.68442  0.00000  Biso   1.000  C 
  C103     1.0000 0.81563  0.73249  0.00000  Biso   1.000  C 
  H38      1.0000 0.86954  0.72128  0.00000  Biso   1.000  H 
  H39      1.0000 0.77872  0.63051  0.00000  Biso   1.000  H 
  O75      1.0000 0.67046  0.59530  0.00000  Biso   1.000  O 
  C104     1.0000 0.65360  0.65361  0.00000  Biso   1.000  C 
  O76      1.0000 0.59529  0.67047  0.00000  Biso   1.000  O 
  N38      1.0000 0.66482  0.89856  0.96568  Biso   1.000  N 
  N39      1.0000 0.61866  0.91322  0.93413  Biso   1.000  N 
  C105     1.0000 0.84640  0.34640  0.50000  Biso   1.000  C 
  O77      1.0000 0.90471  0.32954  0.50000  Biso   1.000  O 
  O78      1.0000 0.82954  0.40471  0.50000  Biso   1.000  O 
  C106     1.0000 0.79500  0.29500  0.50000  Biso   1.000  C 
  C107     1.0000 0.73249  0.31563  0.50000  Biso   1.000  C 
  N40      1.0000 0.71287  0.38576  0.49817  Biso   1.000  N 
  H40      1.0000 0.63051  0.27872  0.50000  Biso   1.000  H 
  C108     1.0000 0.68442  0.26751  0.50000  Biso   1.000  C 
  C109     1.0000 0.70500  0.20500  0.50000  Biso   1.000  C 
  C110     1.0000 0.76751  0.18442  0.50000  Biso   1.000  C 
  C111     1.0000 0.81563  0.23249  0.50000  Biso   1.000  C 
  H41      1.0000 0.86954  0.22128  0.50000  Biso   1.000  H 
  H42      1.0000 0.77872  0.13051  0.50000  Biso   1.000  H 
  O79      1.0000 0.67046  0.09530  0.50000  Biso   1.000  O 
  C112     1.0000 0.65360  0.15360  0.50000  Biso   1.000  C 
  O80      1.0000 0.59529  0.17046  0.50000  Biso   1.000  O 
  N41      1.0000 0.66488  0.39860  0.46566  Biso   1.000  N 
  N42      1.0000 0.61874  0.41327  0.43407  Biso   1.000  N 
  C113     1.0000 0.34640  0.84640  0.50000  Biso   1.000  C 
  O81      1.0000 0.40471  0.82954  0.50000  Biso   1.000  O 
  O82      1.0000 0.32954  0.90471  0.50000  Biso   1.000  O 
  C114     1.0000 0.29500  0.79500  0.50000  Biso   1.000  C 
  C115     1.0000 0.23249  0.81563  0.50000  Biso   1.000  C 
  N43      1.0000 0.21284  0.88573  0.49798  Biso   1.000  N 
  H43      1.0000 0.13051  0.77872  0.50000  Biso   1.000  H 
  C116     1.0000 0.18442  0.76752  0.50000  Biso   1.000  C 
  C117     1.0000 0.20500  0.70501  0.50000  Biso   1.000  C 
  C118     1.0000 0.26751  0.68442  0.50000  Biso   1.000  C 
  C119     1.0000 0.31563  0.73249  0.50000  Biso   1.000  C 
  H44      1.0000 0.36954  0.72128  0.50000  Biso   1.000  H 
  H45      1.0000 0.27872  0.63051  0.50000  Biso   1.000  H 
  O83      1.0000 0.17046  0.59530  0.50000  Biso   1.000  O 
  C120     1.0000 0.15360  0.65361  0.50000  Biso   1.000  C 
  O84      1.0000 0.09529  0.67047  0.50000  Biso   1.000  O 
  N44      1.0000 0.16505  0.89841  0.46511  Biso   1.000  N 
  N45      1.0000 0.11912  0.91295  0.43316  Biso   1.000  N 
  C121     1.0000 0.34640  0.34640  0.00000  Biso   1.000  C 
  O85      1.0000 0.40471  0.32954  0.00000  Biso   1.000  O 
  O86      1.0000 0.32954  0.40471  0.00000  Biso   1.000  O 
  C122     1.0000 0.29500  0.29500  0.00000  Biso   1.000  C 
  C123     1.0000 0.23249  0.31563  0.00000  Biso   1.000  C 
  N46      1.0000 0.21282  0.38572  0.99796  Biso   1.000  N 
  H46      1.0000 0.13051  0.27872  0.00000  Biso   1.000  H 
  C124     1.0000 0.18442  0.26751  0.00000  Biso   1.000  C 
  C125     1.0000 0.20500  0.20500  0.00000  Biso   1.000  C 
  C126     1.0000 0.26751  0.18442  0.00000  Biso   1.000  C 
  C127     1.0000 0.31563  0.23249  0.00000  Biso   1.000  C 
  H47      1.0000 0.36954  0.22128  0.00000  Biso   1.000  H 
  H48      1.0000 0.27872  0.13051  0.00000  Biso   1.000  H 
  O87      1.0000 0.17046  0.09530  0.00000  Biso   1.000  O 
  C128     1.0000 0.15360  0.15360  0.00000  Biso   1.000  C 
  O88      1.0000 0.09529  0.17046  0.00000  Biso   1.000  O 
  N47      1.0000 0.16495  0.39837  0.96517  Biso   1.000  N 
  N48      1.0000 0.11896  0.41288  0.93331  Biso   1.000  N 
  C129     1.0000 0.00000  0.84640  0.15360  Biso   1.000  C 
  O89      1.0000 0.00000  0.90471  0.17046  Biso   1.000  O 
  O90      1.0000 0.00000  0.82954  0.09529  Biso   1.000  O 
  C130     1.0000 0.00000  0.79500  0.20500  Biso   1.000  C 
  C131     1.0000 0.00000  0.73249  0.18437  Biso   1.000  C 
  N49      1.0000 0.00846  0.71450  0.11453  Biso   1.000  N 
  H49      1.0000 0.00000  0.63051  0.22128  Biso   1.000  H 
  C132     1.0000 0.00000  0.68442  0.23249  Biso   1.000  C 
  C133     1.0000 0.00000  0.70500  0.29500  Biso   1.000  C 
  C134     1.0000 0.00000  0.76751  0.31558  Biso   1.000  C 
  C135     1.0000 0.00000  0.81563  0.26751  Biso   1.000  C 
  H50      1.0000 0.00000  0.86954  0.27872  Biso   1.000  H 
  H51      1.0000 0.00000  0.77872  0.36949  Biso   1.000  H 
  O91      1.0000 0.00000  0.67046  0.40470  Biso   1.000  O 
  C136     1.0000 0.00000  0.65360  0.34640  Biso   1.000  C 
  O92      1.0000 0.00000  0.59529  0.32954  Biso   1.000  O 
  N50      1.0000 0.00712  0.65683  0.10219  Biso   1.000  N 
  N51      1.0000 0.00513  0.60097  0.08860  Biso   1.000  N 
  C137     1.0000 0.00000  0.34640  0.65360  Biso   1.000  C 
  O93      1.0000 0.00000  0.40471  0.67046  Biso   1.000  O 
  O94      1.0000 0.00000  0.32954  0.59529  Biso   1.000  O 
  C138     1.0000 0.00000  0.29500  0.70500  Biso   1.000  C 
  C139     1.0000 0.00000  0.23249  0.68437  Biso   1.000  C 
  N52      1.0000 0.00845  0.21448  0.61452  Biso   1.000  N 
  H52      1.0000 0.00000  0.13051  0.72128  Biso   1.000  H 
  C140     1.0000 0.00000  0.18442  0.73248  Biso   1.000  C 
  C141     1.0000 0.00000  0.20500  0.79499  Biso   1.000  C 
  C142     1.0000 0.00000  0.26751  0.81558  Biso   1.000  C 
  C143     1.0000 0.00000  0.31563  0.76751  Biso   1.000  C 
  H53      1.0000 0.00000  0.36954  0.77872  Biso   1.000  H 
  H54      1.0000 0.00000  0.27872  0.86949  Biso   1.000  H 
  O95      1.0000 0.00000  0.17046  0.90470  Biso   1.000  O 
  C144     1.0000 0.00000  0.15360  0.84639  Biso   1.000  C 
  O96      1.0000 0.00000  0.09529  0.82953  Biso   1.000  O 
  N53      1.0000 0.00679  0.15682  0.60212  Biso   1.000  N 
  N54      1.0000 0.00450  0.10097  0.58847  Biso   1.000  N 
  C145     1.0000 0.50000  0.84640  0.65360  Biso   1.000  C 
  O97      1.0000 0.50000  0.90471  0.67046  Biso   1.000  O 
  O98      1.0000 0.50000  0.82954  0.59529  Biso   1.000  O 
  C146     1.0000 0.50000  0.79500  0.70500  Biso   1.000  C 
  C147     1.0000 0.50000  0.73249  0.68437  Biso   1.000  C 
  N55      1.0000 0.50853  0.71450  0.61455  Biso   1.000  N 
  H55      1.0000 0.50000  0.63051  0.72128  Biso   1.000  H 
  C148     1.0000 0.50000  0.68442  0.73248  Biso   1.000  C 
  C149     1.0000 0.50000  0.70500  0.79499  Biso   1.000  C 
  C150     1.0000 0.50000  0.76751  0.81558  Biso   1.000  C 
  C151     1.0000 0.50000  0.81563  0.76751  Biso   1.000  C 
  H56      1.0000 0.50000  0.86954  0.77872  Biso   1.000  H 
  H57      1.0000 0.50000  0.77872  0.86949  Biso   1.000  H 
  O99      1.0000 0.50000  0.67046  0.90470  Biso   1.000  O 
  C152     1.0000 0.50000  0.65360  0.84639  Biso   1.000  C 
  O100     1.0000 0.50000  0.59529  0.82953  Biso   1.000  O 
  N56      1.0000 0.50728  0.65683  0.60225  Biso   1.000  N 
  N57      1.0000 0.50535  0.60095  0.58872  Biso   1.000  N 
  C153     1.0000 0.50000  0.34640  0.15360  Biso   1.000  C 
  O101     1.0000 0.50000  0.40471  0.17046  Biso   1.000  O 
  O102     1.0000 0.50000  0.32954  0.09529  Biso   1.000  O 
  C154     1.0000 0.50000  0.29500  0.20500  Biso   1.000  C 
  C155     1.0000 0.50000  0.23249  0.18437  Biso   1.000  C 
  N58      1.0000 0.50865  0.21452  0.11456  Biso   1.000  N 
  H58      1.0000 0.50000  0.13051  0.22128  Biso   1.000  H 
  C156     1.0000 0.50000  0.18442  0.23249  Biso   1.000  C 
  C157     1.0000 0.50000  0.20500  0.29500  Biso   1.000  C 
  C158     1.0000 0.50000  0.26751  0.31558  Biso   1.000  C 
  C159     1.0000 0.50000  0.31563  0.26751  Biso   1.000  C 
  H59      1.0000 0.50000  0.36954  0.27872  Biso   1.000  H 
  H60      1.0000 0.50000  0.27872  0.36949  Biso   1.000  H 
  O103     1.0000 0.50000  0.17046  0.40470  Biso   1.000  O 
  C160     1.0000 0.50000  0.15360  0.34640  Biso   1.000  C 
  O104     1.0000 0.50000  0.09529  0.32954  Biso   1.000  O 
  N59      1.0000 0.50753  0.15685  0.10229  Biso   1.000  N 
  N60      1.0000 0.50572  0.10097  0.08881  Biso   1.000  N 
  C161     1.0000 0.00000  0.84640  0.84640  Biso   1.000  C 
  O105     1.0000 0.00000  0.90471  0.82954  Biso   1.000  O 
  O106     1.0000 0.00000  0.82954  0.90471  Biso   1.000  O 
  C162     1.0000 0.00000  0.79500  0.79500  Biso   1.000  C 
  C163     1.0000 0.00000  0.73249  0.81563  Biso   1.000  C 
  N61      1.0000 0.99797  0.71282  0.88572  Biso   1.000  N 
  H61      1.0000 0.00000  0.63051  0.77872  Biso   1.000  H 
  C164     1.0000 0.00000  0.68442  0.76752  Biso   1.000  C 
  C165     1.0000 0.00000  0.70500  0.70501  Biso   1.000  C 
  C166     1.0000 0.00000  0.76751  0.68442  Biso   1.000  C 
  C167     1.0000 0.00000  0.81563  0.73249  Biso   1.000  C 
  H62      1.0000 0.00000  0.86954  0.72128  Biso   1.000  H 
  H63      1.0000 0.00000  0.77872  0.63051  Biso   1.000  H 
  O107     1.0000 0.00000  0.67046  0.59530  Biso   1.000  O 
  C168     1.0000 0.00000  0.65360  0.65361  Biso   1.000  C 
  O108     1.0000 0.00000  0.59529  0.67047  Biso   1.000  O 
  N62      1.0000 0.96519  0.66496  0.89838  Biso   1.000  N 
  N63      1.0000 0.93333  0.61896  0.91290  Biso   1.000  N 
  C169     1.0000 0.00000  0.34640  0.34640  Biso   1.000  C 
  O109     1.0000 0.00000  0.40471  0.32954  Biso   1.000  O 
  O110     1.0000 0.00000  0.32954  0.40471  Biso   1.000  O 
  C170     1.0000 0.00000  0.29500  0.29500  Biso   1.000  C 
  C171     1.0000 0.00000  0.23249  0.31563  Biso   1.000  C 
  N64      1.0000 0.99824  0.21289  0.38578  Biso   1.000  N 
  H64      1.0000 0.00000  0.13051  0.27872  Biso   1.000  H 
  C172     1.0000 0.00000  0.18442  0.26751  Biso   1.000  C 
  C173     1.0000 0.00000  0.20500  0.20500  Biso   1.000  C 
  C174     1.0000 0.00000  0.26751  0.18442  Biso   1.000  C 
  C175     1.0000 0.00000  0.31563  0.23249  Biso   1.000  C 
  H65      1.0000 0.00000  0.36954  0.22128  Biso   1.000  H 
  H66      1.0000 0.00000  0.27872  0.13051  Biso   1.000  H 
  O111     1.0000 0.00000  0.17046  0.09530  Biso   1.000  O 
  C176     1.0000 0.00000  0.15360  0.15360  Biso   1.000  C 
  O112     1.0000 0.00000  0.09529  0.17046  Biso   1.000  O 
  N65      1.0000 0.96579  0.16487  0.39868  Biso   1.000  N 
  N66      1.0000 0.93427  0.11871  0.41342  Biso   1.000  N 
  C177     1.0000 0.50000  0.84640  0.34640  Biso   1.000  C 
  O113     1.0000 0.50000  0.90471  0.32954  Biso   1.000  O 
  O114     1.0000 0.50000  0.82954  0.40471  Biso   1.000  O 
  C178     1.0000 0.50000  0.79500  0.29500  Biso   1.000  C 
  C179     1.0000 0.50000  0.73249  0.31563  Biso   1.000  C 
  N67      1.0000 0.49813  0.71285  0.38575  Biso   1.000  N 
  H67      1.0000 0.50000  0.63051  0.27872  Biso   1.000  H 
  C180     1.0000 0.50000  0.68442  0.26751  Biso   1.000  C 
  C181     1.0000 0.50000  0.70500  0.20500  Biso   1.000  C 
  C182     1.0000 0.50000  0.76751  0.18442  Biso   1.000  C 
  C183     1.0000 0.50000  0.81563  0.23249  Biso   1.000  C 
  H68      1.0000 0.50000  0.86954  0.22128  Biso   1.000  H 
  H69      1.0000 0.50000  0.77872  0.13051  Biso   1.000  H 
  O115     1.0000 0.50000  0.67046  0.09530  Biso   1.000  O 
  C184     1.0000 0.50000  0.65360  0.15360  Biso   1.000  C 
  O116     1.0000 0.50000  0.59529  0.17046  Biso   1.000  O 
  N68      1.0000 0.46559  0.66486  0.39853  Biso   1.000  N 
  N69      1.0000 0.43397  0.61873  0.41316  Biso   1.000  N 
  C185     1.0000 0.50000  0.34640  0.84640  Biso   1.000  C 
  O117     1.0000 0.50000  0.40471  0.82954  Biso   1.000  O 
  O118     1.0000 0.50000  0.32954  0.90471  Biso   1.000  O 
  C186     1.0000 0.50000  0.29500  0.79500  Biso   1.000  C 
  C187     1.0000 0.50000  0.23249  0.81563  Biso   1.000  C 
  N70      1.0000 0.49813  0.21285  0.88575  Biso   1.000  N 
  H70      1.0000 0.50000  0.13051  0.77872  Biso   1.000  H 
  C188     1.0000 0.50000  0.18442  0.76752  Biso   1.000  C 
  C189     1.0000 0.50000  0.20500  0.70501  Biso   1.000  C 
  C190     1.0000 0.50000  0.26751  0.68442  Biso   1.000  C 
  C191     1.0000 0.50000  0.31563  0.73249  Biso   1.000  C 
  H71      1.0000 0.50000  0.36954  0.72128  Biso   1.000  H 
  H72      1.0000 0.50000  0.27872  0.63051  Biso   1.000  H 
  O119     1.0000 0.50000  0.17046  0.59530  Biso   1.000  O 
  C192     1.0000 0.50000  0.15360  0.65361  Biso   1.000  C 
  O120     1.0000 0.50000  0.09529  0.67047  Biso   1.000  O 
  N71      1.0000 0.46556  0.16488  0.89853  Biso   1.000  N 
  N72      1.0000 0.43391  0.11878  0.91317  Biso   1.000  N 
