data_image0
_cell_length_a       20.7004
_cell_length_b       20.7004
_cell_length_c       20.7004
_cell_angle_alpha    90
_cell_angle_beta     90
_cell_angle_gamma    90

_symmetry_space_group_name_H-M    "P 1"
_symmetry_int_tables_number       1

loop_
  _symmetry_equiv_pos_as_xyz
  'x, y, z'

loop_
  _atom_site_label
  _atom_site_occupancy
  _atom_site_fract_x
  _atom_site_fract_y
  _atom_site_fract_z
  _atom_site_thermal_displace_type
  _atom_site_B_iso_or_equiv
  _atom_site_type_symbol
  Zr1      1.0000 0.11989  0.00000  0.00000  Biso   1.000  Zr
  Zr2      1.0000 0.11989  0.50000  0.50000  Biso   1.000  Zr
  Zr3      1.0000 0.61989  0.00000  0.50000  Biso   1.000  Zr
  Zr4      1.0000 0.61989  0.50000  0.00000  Biso   1.000  Zr
  Zr5      1.0000 0.88011  0.00000  0.00000  Biso   1.000  Zr
  Zr6      1.0000 0.88011  0.50000  0.50000  Biso   1.000  Zr
  Zr7      1.0000 0.38011  0.00000  0.50000  Biso   1.000  Zr
  Zr8      1.0000 0.38011  0.50000  0.00000  Biso   1.000  Zr
  Zr9      1.0000 0.00000  0.11989  0.00000  Biso   1.000  Zr
  Zr10     1.0000 0.00000  0.61989  0.50000  Biso   1.000  Zr
  Zr11     1.0000 0.50000  0.11989  0.50000  Biso   1.000  Zr
  Zr12     1.0000 0.50000  0.61989  0.00000  Biso   1.000  Zr
  Zr13     1.0000 0.00000  0.88011  0.00000  Biso   1.000  Zr
  Zr14     1.0000 0.00000  0.38011  0.50000  Biso   1.000  Zr
  Zr15     1.0000 0.50000  0.88011  0.50000  Biso   1.000  Zr
  Zr16     1.0000 0.50000  0.38011  0.00000  Biso   1.000  Zr
  Zr17     1.0000 0.00000  0.00000  0.11989  Biso   1.000  Zr
  Zr18     1.0000 0.00000  0.50000  0.61989  Biso   1.000  Zr
  Zr19     1.0000 0.50000  0.00000  0.61989  Biso   1.000  Zr
  Zr20     1.0000 0.50000  0.50000  0.11989  Biso   1.000  Zr
  Zr21     1.0000 0.00000  0.00000  0.88011  Biso   1.000  Zr
  Zr22     1.0000 0.00000  0.50000  0.38011  Biso   1.000  Zr
  Zr23     1.0000 0.50000  0.00000  0.38011  Biso   1.000  Zr
  Zr24     1.0000 0.50000  0.50000  0.88011  Biso   1.000  Zr
  O1       1.0000 0.05610  0.44390  0.44390  Biso   1.000  O 
  O2       1.0000 0.55610  0.94390  0.44390  Biso   1.000  O 
  O3       1.0000 0.55610  0.44390  0.94390  Biso   1.000  O 
  O4       1.0000 0.44390  0.05610  0.44390  Biso   1.000  O 
  O5       1.0000 0.44390  0.55610  0.94390  Biso   1.000  O 
  O6       1.0000 0.94390  0.94390  0.05610  Biso   1.000  O 
  O7       1.0000 0.94390  0.44390  0.55610  Biso   1.000  O 
  O8       1.0000 0.05610  0.05610  0.05610  Biso   1.000  O 
  O9       1.0000 0.55610  0.55610  0.05610  Biso   1.000  O 
  O10      1.0000 0.94390  0.05610  0.05610  Biso   1.000  O 
  O11      1.0000 0.94390  0.55610  0.55610  Biso   1.000  O 
  O12      1.0000 0.44390  0.05610  0.55610  Biso   1.000  O 
  O13      1.0000 0.44390  0.55610  0.05610  Biso   1.000  O 
  O14      1.0000 0.05610  0.94390  0.05610  Biso   1.000  O 
  O15      1.0000 0.05610  0.44390  0.55610  Biso   1.000  O 
  O16      1.0000 0.55610  0.94390  0.55610  Biso   1.000  O 
  O17      1.0000 0.55610  0.44390  0.05610  Biso   1.000  O 
  O18      1.0000 0.94390  0.94390  0.94390  Biso   1.000  O 
  O19      1.0000 0.94390  0.44390  0.44390  Biso   1.000  O 
  O20      1.0000 0.44390  0.94390  0.44390  Biso   1.000  O 
  O21      1.0000 0.44390  0.44390  0.94390  Biso   1.000  O 
  O22      1.0000 0.05610  0.05610  0.94390  Biso   1.000  O 
  O23      1.0000 0.05610  0.55610  0.44390  Biso   1.000  O 
  O24      1.0000 0.55610  0.05610  0.44390  Biso   1.000  O 
  C1       1.0000 0.15360  0.00000  0.84640  Biso   1.000  C 
  O25      1.0000 0.17046  0.00000  0.90471  Biso   1.000  O 
  O26      1.0000 0.09529  0.00000  0.82954  Biso   1.000  O 
  C2       1.0000 0.20500  0.00000  0.79500  Biso   1.000  C 
  C3       1.0000 0.18437  0.00000  0.73249  Biso   1.000  C 
  H1       1.0000 0.13046  0.00000  0.72128  Biso   1.000  H 
  N1       1.0000 0.21063  0.00156  0.61485  Biso   1.000  N 
  C4       1.0000 0.23249  0.00000  0.68442  Biso   1.000  C 
  C5       1.0000 0.29500  0.00000  0.70500  Biso   1.000  C 
  C6       1.0000 0.31558  0.00000  0.76751  Biso   1.000  C 
  C7       1.0000 0.26751  0.00000  0.81563  Biso   1.000  C 
  N2       1.0000 0.28926  0.00168  0.88524  Biso   1.000  N 
  H2       1.0000 0.36949  0.00000  0.77872  Biso   1.000  H 
  O27      1.0000 0.40470  0.00000  0.67046  Biso   1.000  O 
  C8       1.0000 0.34640  0.00000  0.65360  Biso   1.000  C 
  O28      1.0000 0.32954  0.00000  0.59529  Biso   1.000  O 
  H3       1.0000 0.17969  0.96268  0.60747  Biso   1.000  H 
  H4       1.0000 0.18812  0.04620  0.60611  Biso   1.000  H 
  H5       1.0000 0.31105  0.04664  0.89406  Biso   1.000  H 
  H6       1.0000 0.32059  0.96313  0.89275  Biso   1.000  H 
  C9       1.0000 0.15360  0.50000  0.34640  Biso   1.000  C 
  O29      1.0000 0.17046  0.50000  0.40471  Biso   1.000  O 
  O30      1.0000 0.09529  0.50000  0.32954  Biso   1.000  O 
  C10      1.0000 0.20500  0.50000  0.29500  Biso   1.000  C 
  C11      1.0000 0.18437  0.50000  0.23249  Biso   1.000  C 
  H7       1.0000 0.13046  0.50000  0.22128  Biso   1.000  H 
  N3       1.0000 0.21061  0.50178  0.11485  Biso   1.000  N 
  C12      1.0000 0.23249  0.50000  0.18442  Biso   1.000  C 
  C13      1.0000 0.29500  0.50000  0.20500  Biso   1.000  C 
  C14      1.0000 0.31558  0.50000  0.26751  Biso   1.000  C 
  C15      1.0000 0.26751  0.50000  0.31563  Biso   1.000  C 
  N4       1.0000 0.28755  0.50033  0.38415  Biso   1.000  N 
  H8       1.0000 0.36949  0.50000  0.27872  Biso   1.000  H 
  O31      1.0000 0.40470  0.50000  0.17046  Biso   1.000  O 
  C16      1.0000 0.34640  0.50000  0.15360  Biso   1.000  C 
  O32      1.0000 0.32954  0.50000  0.09529  Biso   1.000  O 
  H9       1.0000 0.17968  0.46292  0.10729  Biso   1.000  H 
  H10      1.0000 0.18811  0.54644  0.10629  Biso   1.000  H 
  H11      1.0000 0.31315  0.45716  0.38895  Biso   1.000  H 
  H12      1.0000 0.32148  0.53685  0.39460  Biso   1.000  H 
  C17      1.0000 0.65360  0.00000  0.34640  Biso   1.000  C 
  O33      1.0000 0.67046  0.00000  0.40471  Biso   1.000  O 
  O34      1.0000 0.59529  0.00000  0.32954  Biso   1.000  O 
  C18      1.0000 0.70500  0.00000  0.29500  Biso   1.000  C 
  C19      1.0000 0.68437  0.00000  0.23249  Biso   1.000  C 
  H13      1.0000 0.63046  0.00000  0.22128  Biso   1.000  H 
  N5       1.0000 0.71217  0.99599  0.11440  Biso   1.000  N 
  C20      1.0000 0.73248  0.00000  0.18442  Biso   1.000  C 
  C21      1.0000 0.79499  0.00000  0.20500  Biso   1.000  C 
  C22      1.0000 0.81558  0.00000  0.26751  Biso   1.000  C 
  C23      1.0000 0.76751  0.00000  0.31563  Biso   1.000  C 
  N6       1.0000 0.78548  0.00045  0.38528  Biso   1.000  N 
  H14      1.0000 0.86949  0.00000  0.27872  Biso   1.000  H 
  O35      1.0000 0.90470  0.00000  0.17046  Biso   1.000  O 
  C24      1.0000 0.84639  0.00000  0.15360  Biso   1.000  C 
  O36      1.0000 0.82953  0.00000  0.09529  Biso   1.000  O 
  H15      1.0000 0.69300  0.04306  0.11221  Biso   1.000  H 
  H16      1.0000 0.67473  0.96337  0.10413  Biso   1.000  H 
  H17      1.0000 0.80824  0.95662  0.39707  Biso   1.000  H 
  H18      1.0000 0.81499  0.04022  0.39792  Biso   1.000  H 
  C25      1.0000 0.65360  0.50000  0.84640  Biso   1.000  C 
  O37      1.0000 0.67046  0.50000  0.90471  Biso   1.000  O 
  O38      1.0000 0.59529  0.50000  0.82954  Biso   1.000  O 
  C26      1.0000 0.70500  0.50000  0.79500  Biso   1.000  C 
  C27      1.0000 0.68437  0.50000  0.73249  Biso   1.000  C 
  H19      1.0000 0.63046  0.50000  0.72128  Biso   1.000  H 
  N7       1.0000 0.71215  0.50296  0.61633  Biso   1.000  N 
  C28      1.0000 0.73248  0.50000  0.68442  Biso   1.000  C 
  C29      1.0000 0.79499  0.50000  0.70500  Biso   1.000  C 
  C30      1.0000 0.81558  0.50000  0.76751  Biso   1.000  C 
  C31      1.0000 0.76751  0.50000  0.81563  Biso   1.000  C 
  N8       1.0000 0.78927  0.49853  0.88525  Biso   1.000  N 
  H20      1.0000 0.86949  0.50000  0.77872  Biso   1.000  H 
  O39      1.0000 0.90470  0.50000  0.67046  Biso   1.000  O 
  C32      1.0000 0.84639  0.50000  0.65360  Biso   1.000  C 
  O40      1.0000 0.82953  0.50000  0.59529  Biso   1.000  O 
  H21      1.0000 0.67446  0.53535  0.60929  Biso   1.000  H 
  H22      1.0000 0.69801  0.45718  0.60245  Biso   1.000  H 
  H23      1.0000 0.81124  0.45366  0.89408  Biso   1.000  H 
  H24      1.0000 0.82051  0.53719  0.89270  Biso   1.000  H 
  C33      1.0000 0.84640  0.00000  0.84640  Biso   1.000  C 
  O41      1.0000 0.82954  0.00000  0.90471  Biso   1.000  O 
  O42      1.0000 0.90471  0.00000  0.82954  Biso   1.000  O 
  C34      1.0000 0.79500  0.00000  0.79500  Biso   1.000  C 
  C35      1.0000 0.81563  0.00000  0.73249  Biso   1.000  C 
  H25      1.0000 0.86954  0.00000  0.72128  Biso   1.000  H 
  N9       1.0000 0.78933  0.99832  0.61485  Biso   1.000  N 
  C36      1.0000 0.76752  0.00000  0.68442  Biso   1.000  C 
  C37      1.0000 0.70501  0.00000  0.70500  Biso   1.000  C 
  C38      1.0000 0.68442  0.00000  0.76751  Biso   1.000  C 
  C39      1.0000 0.73249  0.00000  0.81563  Biso   1.000  C 
  N10      1.0000 0.71073  0.99831  0.88523  Biso   1.000  N 
  H26      1.0000 0.63051  0.00000  0.77872  Biso   1.000  H 
  O43      1.0000 0.59530  0.00000  0.67046  Biso   1.000  O 
  C40      1.0000 0.65361  0.00000  0.65360  Biso   1.000  C 
  O44      1.0000 0.67047  0.00000  0.59529  Biso   1.000  O 
  H27      1.0000 0.82053  0.03701  0.60752  Biso   1.000  H 
  H28      1.0000 0.81145  0.95353  0.60605  Biso   1.000  H 
  H29      1.0000 0.68898  0.95331  0.89390  Biso   1.000  H 
  H30      1.0000 0.67934  0.03683  0.89282  Biso   1.000  H 
  C41      1.0000 0.84640  0.50000  0.34640  Biso   1.000  C 
  O45      1.0000 0.82954  0.50000  0.40471  Biso   1.000  O 
  O46      1.0000 0.90471  0.50000  0.32954  Biso   1.000  O 
  C42      1.0000 0.79500  0.50000  0.29500  Biso   1.000  C 
  C43      1.0000 0.81563  0.50000  0.23249  Biso   1.000  C 
  H31      1.0000 0.86954  0.50000  0.22128  Biso   1.000  H 
  N11      1.0000 0.78657  0.49739  0.11518  Biso   1.000  N 
  C44      1.0000 0.76752  0.50000  0.18442  Biso   1.000  C 
  C45      1.0000 0.70501  0.50000  0.20500  Biso   1.000  C 
  C46      1.0000 0.68442  0.50000  0.26751  Biso   1.000  C 
  C47      1.0000 0.73249  0.50000  0.31563  Biso   1.000  C 
  N12      1.0000 0.71065  0.49814  0.38521  Biso   1.000  N 
  H32      1.0000 0.63051  0.50000  0.27872  Biso   1.000  H 
  O47      1.0000 0.59530  0.50000  0.17046  Biso   1.000  O 
  C48      1.0000 0.65361  0.50000  0.15360  Biso   1.000  C 
  O48      1.0000 0.67047  0.50000  0.09529  Biso   1.000  O 
  H33      1.0000 0.81566  0.53735  0.10212  Biso   1.000  H 
  H34      1.0000 0.81371  0.45603  0.10393  Biso   1.000  H 
  H35      1.0000 0.68790  0.45359  0.39390  Biso   1.000  H 
  H36      1.0000 0.67999  0.53716  0.39300  Biso   1.000  H 
  C49      1.0000 0.34640  0.00000  0.34640  Biso   1.000  C 
  O49      1.0000 0.32954  0.00000  0.40471  Biso   1.000  O 
  O50      1.0000 0.40471  0.00000  0.32954  Biso   1.000  O 
  C50      1.0000 0.29500  0.00000  0.29500  Biso   1.000  C 
  C51      1.0000 0.31563  0.00000  0.23249  Biso   1.000  C 
  H37      1.0000 0.36954  0.00000  0.22128  Biso   1.000  H 
  N13      1.0000 0.28598  0.00069  0.11492  Biso   1.000  N 
  C52      1.0000 0.26751  0.00000  0.18442  Biso   1.000  C 
  C53      1.0000 0.20500  0.00000  0.20500  Biso   1.000  C 
  C54      1.0000 0.18442  0.00000  0.26751  Biso   1.000  C 
  C55      1.0000 0.23249  0.00000  0.31563  Biso   1.000  C 
  N14      1.0000 0.21325  0.00349  0.38390  Biso   1.000  N 
  H38      1.0000 0.13051  0.00000  0.27872  Biso   1.000  H 
  O51      1.0000 0.09530  0.00000  0.17046  Biso   1.000  O 
  C56      1.0000 0.15360  0.00000  0.15360  Biso   1.000  C 
  O52      1.0000 0.17046  0.00000  0.09529  Biso   1.000  O 
  H39      1.0000 0.31459  0.96032  0.10198  Biso   1.000  H 
  H40      1.0000 0.31049  0.04349  0.10255  Biso   1.000  H 
  H41      1.0000 0.18866  0.04620  0.39475  Biso   1.000  H 
  H42      1.0000 0.17768  0.96732  0.39053  Biso   1.000  H 
  C57      1.0000 0.34640  0.50000  0.84640  Biso   1.000  C 
  O53      1.0000 0.32954  0.50000  0.90471  Biso   1.000  O 
  O54      1.0000 0.40471  0.50000  0.82954  Biso   1.000  O 
  C58      1.0000 0.29500  0.50000  0.79500  Biso   1.000  C 
  C59      1.0000 0.31563  0.50000  0.73249  Biso   1.000  C 
  H43      1.0000 0.36954  0.50000  0.72128  Biso   1.000  H 
  N15      1.0000 0.28945  0.49848  0.61488  Biso   1.000  N 
  C60      1.0000 0.26751  0.50000  0.68442  Biso   1.000  C 
  C61      1.0000 0.20500  0.50000  0.70500  Biso   1.000  C 
  C62      1.0000 0.18442  0.50000  0.76751  Biso   1.000  C 
  C63      1.0000 0.23249  0.50000  0.81563  Biso   1.000  C 
  N16      1.0000 0.21057  0.49859  0.88400  Biso   1.000  N 
  H44      1.0000 0.13051  0.50000  0.77872  Biso   1.000  H 
  O55      1.0000 0.09530  0.50000  0.67046  Biso   1.000  O 
  C64      1.0000 0.15360  0.50000  0.65360  Biso   1.000  C 
  O56      1.0000 0.17046  0.50000  0.59529  Biso   1.000  O 
  H45      1.0000 0.31976  0.53780  0.60740  Biso   1.000  H 
  H46      1.0000 0.31293  0.45431  0.60601  Biso   1.000  H 
  H47      1.0000 0.19336  0.54512  0.89537  Biso   1.000  H 
  H48      1.0000 0.17274  0.46529  0.89094  Biso   1.000  H 
  C65      1.0000 0.84640  0.15360  0.00000  Biso   1.000  C 
  O57      1.0000 0.90471  0.17046  0.00000  Biso   1.000  O 
  O58      1.0000 0.82954  0.09529  0.00000  Biso   1.000  O 
  C66      1.0000 0.79500  0.20500  0.00000  Biso   1.000  C 
  C67      1.0000 0.73249  0.18437  0.00000  Biso   1.000  C 
  H49      1.0000 0.72128  0.13046  0.00000  Biso   1.000  H 
  N17      1.0000 0.61580  0.21178  0.00157  Biso   1.000  N 
  C68      1.0000 0.68442  0.23249  0.00000  Biso   1.000  C 
  C69      1.0000 0.70500  0.29500  0.00000  Biso   1.000  C 
  C70      1.0000 0.76751  0.31558  0.00000  Biso   1.000  C 
  C71      1.0000 0.81563  0.26751  0.00000  Biso   1.000  C 
  N18      1.0000 0.88521  0.28936  0.00188  Biso   1.000  N 
  H50      1.0000 0.77872  0.36949  0.00000  Biso   1.000  H 
  O59      1.0000 0.67046  0.40470  0.00000  Biso   1.000  O 
  C72      1.0000 0.65360  0.34640  0.00000  Biso   1.000  C 
  O60      1.0000 0.59529  0.32954  0.00000  Biso   1.000  O 
  H51      1.0000 0.60880  0.17370  0.03383  Biso   1.000  H 
  H52      1.0000 0.59943  0.19636  0.95659  Biso   1.000  H 
  H53      1.0000 0.89387  0.31211  0.04644  Biso   1.000  H 
  H54      1.0000 0.89300  0.32004  0.96289  Biso   1.000  H 
  C73      1.0000 0.84640  0.65360  0.50000  Biso   1.000  C 
  O61      1.0000 0.90471  0.67046  0.50000  Biso   1.000  O 
  O62      1.0000 0.82954  0.59529  0.50000  Biso   1.000  O 
  C74      1.0000 0.79500  0.70500  0.50000  Biso   1.000  C 
  C75      1.0000 0.73249  0.68437  0.50000  Biso   1.000  C 
  H55      1.0000 0.72128  0.63046  0.50000  Biso   1.000  H 
  N19      1.0000 0.61688  0.71246  0.49981  Biso   1.000  N 
  C76      1.0000 0.68442  0.73248  0.50000  Biso   1.000  C 
  C77      1.0000 0.70500  0.79499  0.50000  Biso   1.000  C 
  C78      1.0000 0.76751  0.81558  0.50000  Biso   1.000  C 
  C79      1.0000 0.81563  0.76751  0.50000  Biso   1.000  C 
  N20      1.0000 0.88525  0.78879  0.50155  Biso   1.000  N 
  H56      1.0000 0.77872  0.86949  0.50000  Biso   1.000  H 
  O63      1.0000 0.67046  0.90470  0.50000  Biso   1.000  O 
  C80      1.0000 0.65360  0.84639  0.50000  Biso   1.000  C 
  O64      1.0000 0.59529  0.82953  0.50000  Biso   1.000  O 
  H57      1.0000 0.60953  0.68081  0.53861  Biso   1.000  H 
  H58      1.0000 0.60550  0.69196  0.45567  Biso   1.000  H 
  H59      1.0000 0.89507  0.81050  0.54640  Biso   1.000  H 
  H60      1.0000 0.89634  0.82128  0.46437  Biso   1.000  H 
  C81      1.0000 0.34640  0.15360  0.50000  Biso   1.000  C 
  O65      1.0000 0.40471  0.17046  0.50000  Biso   1.000  O 
  O66      1.0000 0.32954  0.09529  0.50000  Biso   1.000  O 
  C82      1.0000 0.29500  0.20500  0.50000  Biso   1.000  C 
  C83      1.0000 0.23249  0.18437  0.50000  Biso   1.000  C 
  H61      1.0000 0.22128  0.13046  0.50000  Biso   1.000  H 
  N21      1.0000 0.11603  0.21238  0.49276  Biso   1.000  N 
  C84      1.0000 0.18442  0.23249  0.50000  Biso   1.000  C 
  C85      1.0000 0.20500  0.29500  0.50000  Biso   1.000  C 
  C86      1.0000 0.26751  0.31558  0.50000  Biso   1.000  C 
  C87      1.0000 0.31563  0.26751  0.50000  Biso   1.000  C 
  N22      1.0000 0.38428  0.28716  0.49973  Biso   1.000  N 
  H62      1.0000 0.27872  0.36949  0.50000  Biso   1.000  H 
  O67      1.0000 0.17046  0.40470  0.50000  Biso   1.000  O 
  C88      1.0000 0.15360  0.34640  0.50000  Biso   1.000  C 
  O68      1.0000 0.09529  0.32954  0.50000  Biso   1.000  O 
  H63      1.0000 0.09451  0.18074  0.52491  Biso   1.000  H 
  H64      1.0000 0.12055  0.19610  0.44489  Biso   1.000  H 
  H65      1.0000 0.38725  0.31722  0.45941  Biso   1.000  H 
  H66      1.0000 0.39675  0.31622  0.53971  Biso   1.000  H 
  C89      1.0000 0.34640  0.65360  0.00000  Biso   1.000  C 
  O69      1.0000 0.40471  0.67046  0.00000  Biso   1.000  O 
  O70      1.0000 0.32954  0.59529  0.00000  Biso   1.000  O 
  C90      1.0000 0.29500  0.70500  0.00000  Biso   1.000  C 
  C91      1.0000 0.23249  0.68437  0.00000  Biso   1.000  C 
  H67      1.0000 0.22128  0.63046  0.00000  Biso   1.000  H 
  N23      1.0000 0.11489  0.71058  0.00182  Biso   1.000  N 
  C92      1.0000 0.18442  0.73248  0.00000  Biso   1.000  C 
  C93      1.0000 0.20500  0.79499  0.00000  Biso   1.000  C 
  C94      1.0000 0.26751  0.81558  0.00000  Biso   1.000  C 
  C95      1.0000 0.31563  0.76751  0.00000  Biso   1.000  C 
  N24      1.0000 0.38475  0.78723  0.00364  Biso   1.000  N 
  H68      1.0000 0.27872  0.86949  0.00000  Biso   1.000  H 
  O71      1.0000 0.17046  0.90470  0.00000  Biso   1.000  O 
  C96      1.0000 0.15360  0.84639  0.00000  Biso   1.000  C 
  O72      1.0000 0.09529  0.82953  0.00000  Biso   1.000  O 
  H69      1.0000 0.10730  0.68013  0.96263  Biso   1.000  H 
  H70      1.0000 0.10609  0.68732  0.04612  Biso   1.000  H 
  H71      1.0000 0.39739  0.82191  0.03822  Biso   1.000  H 
  H72      1.0000 0.38825  0.81305  0.95962  Biso   1.000  H 
  C97      1.0000 0.84640  0.84640  0.00000  Biso   1.000  C 
  O73      1.0000 0.90471  0.82954  0.00000  Biso   1.000  O 
  O74      1.0000 0.82954  0.90471  0.00000  Biso   1.000  O 
  C98      1.0000 0.79500  0.79500  0.00000  Biso   1.000  C 
  C99      1.0000 0.73249  0.81563  0.00000  Biso   1.000  C 
  H73      1.0000 0.72128  0.86954  0.00000  Biso   1.000  H 
  N25      1.0000 0.61486  0.78936  0.00151  Biso   1.000  N 
  C100     1.0000 0.68442  0.76752  0.00000  Biso   1.000  C 
  C101     1.0000 0.70500  0.70501  0.00000  Biso   1.000  C 
  C102     1.0000 0.76751  0.68442  0.00000  Biso   1.000  C 
  C103     1.0000 0.81563  0.73249  0.00000  Biso   1.000  C 
  N26      1.0000 0.88426  0.71292  0.00015  Biso   1.000  N 
  H74      1.0000 0.77872  0.63051  0.00000  Biso   1.000  H 
  O75      1.0000 0.67046  0.59530  0.00000  Biso   1.000  O 
  C104     1.0000 0.65360  0.65361  0.00000  Biso   1.000  C 
  O76      1.0000 0.59529  0.67047  0.00000  Biso   1.000  O 
  H75      1.0000 0.60759  0.82036  0.96265  Biso   1.000  H 
  H76      1.0000 0.60599  0.81179  0.04615  Biso   1.000  H 
  H77      1.0000 0.88716  0.68269  0.04031  Biso   1.000  H 
  H78      1.0000 0.89692  0.68391  0.96028  Biso   1.000  H 
  C105     1.0000 0.84640  0.34640  0.50000  Biso   1.000  C 
  O77      1.0000 0.90471  0.32954  0.50000  Biso   1.000  O 
  O78      1.0000 0.82954  0.40471  0.50000  Biso   1.000  O 
  C106     1.0000 0.79500  0.29500  0.50000  Biso   1.000  C 
  C107     1.0000 0.73249  0.31563  0.50000  Biso   1.000  C 
  H79      1.0000 0.72128  0.36954  0.50000  Biso   1.000  H 
  N27      1.0000 0.61487  0.28943  0.49838  Biso   1.000  N 
  C108     1.0000 0.68442  0.26751  0.50000  Biso   1.000  C 
  C109     1.0000 0.70500  0.20500  0.50000  Biso   1.000  C 
  C110     1.0000 0.76751  0.18442  0.50000  Biso   1.000  C 
  C111     1.0000 0.81563  0.23249  0.50000  Biso   1.000  C 
  N28      1.0000 0.88628  0.21482  0.49462  Biso   1.000  N 
  H80      1.0000 0.77872  0.13051  0.50000  Biso   1.000  H 
  O79      1.0000 0.67046  0.09530  0.50000  Biso   1.000  O 
  C112     1.0000 0.65360  0.15360  0.50000  Biso   1.000  C 
  O80      1.0000 0.59529  0.17046  0.50000  Biso   1.000  O 
  H81      1.0000 0.60739  0.31993  0.53755  Biso   1.000  H 
  H82      1.0000 0.60609  0.31258  0.45404  Biso   1.000  H 
  H83      1.0000 0.89731  0.18130  0.45461  Biso   1.000  H 
  H84      1.0000 0.90608  0.20734  0.54237  Biso   1.000  H 
  C113     1.0000 0.34640  0.84640  0.50000  Biso   1.000  C 
  O81      1.0000 0.40471  0.82954  0.50000  Biso   1.000  O 
  O82      1.0000 0.32954  0.90471  0.50000  Biso   1.000  O 
  C114     1.0000 0.29500  0.79500  0.50000  Biso   1.000  C 
  C115     1.0000 0.23249  0.81563  0.50000  Biso   1.000  C 
  H85      1.0000 0.22128  0.86954  0.50000  Biso   1.000  H 
  N29      1.0000 0.11479  0.78897  0.49860  Biso   1.000  N 
  C116     1.0000 0.18442  0.76752  0.50000  Biso   1.000  C 
  C117     1.0000 0.20500  0.70501  0.50000  Biso   1.000  C 
  C118     1.0000 0.26751  0.68442  0.50000  Biso   1.000  C 
  C119     1.0000 0.31563  0.73249  0.50000  Biso   1.000  C 
  N30      1.0000 0.38521  0.71064  0.49823  Biso   1.000  N 
  H86      1.0000 0.27872  0.63051  0.50000  Biso   1.000  H 
  O83      1.0000 0.17046  0.59530  0.50000  Biso   1.000  O 
  C120     1.0000 0.15360  0.65361  0.50000  Biso   1.000  C 
  O84      1.0000 0.09529  0.67047  0.50000  Biso   1.000  O 
  H87      1.0000 0.10482  0.82179  0.53588  Biso   1.000  H 
  H88      1.0000 0.10535  0.81011  0.45338  Biso   1.000  H 
  H89      1.0000 0.39399  0.68784  0.45371  Biso   1.000  H 
  H90      1.0000 0.39296  0.68002  0.53727  Biso   1.000  H 
  C121     1.0000 0.34640  0.34640  0.00000  Biso   1.000  C 
  O85      1.0000 0.40471  0.32954  0.00000  Biso   1.000  O 
  O86      1.0000 0.32954  0.40471  0.00000  Biso   1.000  O 
  C122     1.0000 0.29500  0.29500  0.00000  Biso   1.000  C 
  C123     1.0000 0.23249  0.31563  0.00000  Biso   1.000  C 
  H91      1.0000 0.22128  0.36954  0.00000  Biso   1.000  H 
  N31      1.0000 0.11662  0.28791  0.99513  Biso   1.000  N 
  C124     1.0000 0.18442  0.26751  0.00000  Biso   1.000  C 
  C125     1.0000 0.20500  0.20500  0.00000  Biso   1.000  C 
  C126     1.0000 0.26751  0.18442  0.00000  Biso   1.000  C 
  C127     1.0000 0.31563  0.23249  0.00000  Biso   1.000  C 
  N32      1.0000 0.38523  0.21071  0.99813  Biso   1.000  N 
  H92      1.0000 0.27872  0.13051  0.00000  Biso   1.000  H 
  O87      1.0000 0.17046  0.09530  0.00000  Biso   1.000  O 
  C128     1.0000 0.15360  0.15360  0.00000  Biso   1.000  C 
  O88      1.0000 0.09529  0.17046  0.00000  Biso   1.000  O 
  H93      1.0000 0.10918  0.32920  0.96725  Biso   1.000  H 
  H94      1.0000 0.10153  0.29578  0.04216  Biso   1.000  H 
  H95      1.0000 0.39392  0.18872  0.95323  Biso   1.000  H 
  H96      1.0000 0.39293  0.17954  0.03677  Biso   1.000  H 
  C129     1.0000 0.00000  0.84640  0.15360  Biso   1.000  C 
  O89      1.0000 0.00000  0.90471  0.17046  Biso   1.000  O 
  O90      1.0000 0.00000  0.82954  0.09529  Biso   1.000  O 
  C130     1.0000 0.00000  0.79500  0.20500  Biso   1.000  C 
  C131     1.0000 0.00000  0.73249  0.18437  Biso   1.000  C 
  H97      1.0000 0.00000  0.72128  0.13046  Biso   1.000  H 
  N33      1.0000 0.00147  0.61483  0.21065  Biso   1.000  N 
  C132     1.0000 0.00000  0.68442  0.23249  Biso   1.000  C 
  C133     1.0000 0.00000  0.70500  0.29500  Biso   1.000  C 
  C134     1.0000 0.00000  0.76751  0.31558  Biso   1.000  C 
  C135     1.0000 0.00000  0.81563  0.26751  Biso   1.000  C 
  N34      1.0000 0.00860  0.88746  0.28739  Biso   1.000  N 
  H98      1.0000 0.00000  0.77872  0.36949  Biso   1.000  H 
  O91      1.0000 0.00000  0.67046  0.40470  Biso   1.000  O 
  C136     1.0000 0.00000  0.65360  0.34640  Biso   1.000  C 
  O92      1.0000 0.00000  0.59529  0.32954  Biso   1.000  O 
  H99      1.0000 0.96268  0.60755  0.17955  Biso   1.000  H 
  H100     1.0000 0.04618  0.60609  0.18834  Biso   1.000  H 
  H101     1.0000 0.96538  0.91562  0.28762  Biso   1.000  H 
  H102     1.0000 0.04177  0.89414  0.32523  Biso   1.000  H 
  C137     1.0000 0.00000  0.34640  0.65360  Biso   1.000  C 
  O93      1.0000 0.00000  0.40471  0.67046  Biso   1.000  O 
  O94      1.0000 0.00000  0.32954  0.59529  Biso   1.000  O 
  C138     1.0000 0.00000  0.29500  0.70500  Biso   1.000  C 
  C139     1.0000 0.00000  0.23249  0.68437  Biso   1.000  C 
  H103     1.0000 0.00000  0.22128  0.63046  Biso   1.000  H 
  N35      1.0000 0.00126  0.11477  0.71106  Biso   1.000  N 
  C140     1.0000 0.00000  0.18442  0.73248  Biso   1.000  C 
  C141     1.0000 0.00000  0.20500  0.79499  Biso   1.000  C 
  C142     1.0000 0.00000  0.26751  0.81558  Biso   1.000  C 
  C143     1.0000 0.00000  0.31563  0.76751  Biso   1.000  C 
  N36      1.0000 0.99842  0.38417  0.78655  Biso   1.000  N 
  H104     1.0000 0.00000  0.27872  0.86949  Biso   1.000  H 
  O95      1.0000 0.00000  0.17046  0.90470  Biso   1.000  O 
  C144     1.0000 0.00000  0.15360  0.84639  Biso   1.000  C 
  O96      1.0000 0.00000  0.09529  0.82953  Biso   1.000  O 
  H105     1.0000 0.96398  0.10467  0.67828  Biso   1.000  H 
  H106     1.0000 0.04640  0.10512  0.68983  Biso   1.000  H 
  H107     1.0000 0.96048  0.39310  0.81879  Biso   1.000  H 
  H108     1.0000 0.04369  0.39308  0.80826  Biso   1.000  H 
  C145     1.0000 0.50000  0.84640  0.65360  Biso   1.000  C 
  O97      1.0000 0.50000  0.90471  0.67046  Biso   1.000  O 
  O98      1.0000 0.50000  0.82954  0.59529  Biso   1.000  O 
  C146     1.0000 0.50000  0.79500  0.70500  Biso   1.000  C 
  C147     1.0000 0.50000  0.73249  0.68437  Biso   1.000  C 
  H109     1.0000 0.50000  0.72128  0.63046  Biso   1.000  H 
  N37      1.0000 0.49853  0.61484  0.71065  Biso   1.000  N 
  C148     1.0000 0.50000  0.68442  0.73248  Biso   1.000  C 
  C149     1.0000 0.50000  0.70500  0.79499  Biso   1.000  C 
  C150     1.0000 0.50000  0.76751  0.81558  Biso   1.000  C 
  C151     1.0000 0.50000  0.81563  0.76751  Biso   1.000  C 
  N38      1.0000 0.50136  0.88528  0.78883  Biso   1.000  N 
  H110     1.0000 0.50000  0.77872  0.86949  Biso   1.000  H 
  O99      1.0000 0.50000  0.67046  0.90470  Biso   1.000  O 
  C152     1.0000 0.50000  0.65360  0.84639  Biso   1.000  C 
  O100     1.0000 0.50000  0.59529  0.82953  Biso   1.000  O 
  H111     1.0000 0.53729  0.60753  0.67951  Biso   1.000  H 
  H112     1.0000 0.45379  0.60609  0.68841  Biso   1.000  H 
  H113     1.0000 0.54630  0.89502  0.81042  Biso   1.000  H 
  H114     1.0000 0.46412  0.89600  0.82141  Biso   1.000  H 
  C153     1.0000 0.50000  0.34640  0.15360  Biso   1.000  C 
  O101     1.0000 0.50000  0.40471  0.17046  Biso   1.000  O 
  O102     1.0000 0.50000  0.32954  0.09529  Biso   1.000  O 
  C154     1.0000 0.50000  0.29500  0.20500  Biso   1.000  C 
  C155     1.0000 0.50000  0.23249  0.18437  Biso   1.000  C 
  H115     1.0000 0.50000  0.22128  0.13046  Biso   1.000  H 
  N39      1.0000 0.50498  0.11410  0.21442  Biso   1.000  N 
  C156     1.0000 0.50000  0.18442  0.23249  Biso   1.000  C 
  C157     1.0000 0.50000  0.20500  0.29500  Biso   1.000  C 
  C158     1.0000 0.50000  0.26751  0.31558  Biso   1.000  C 
  C159     1.0000 0.50000  0.31563  0.26751  Biso   1.000  C 
  N40      1.0000 0.50173  0.38523  0.28931  Biso   1.000  N 
  H116     1.0000 0.50000  0.27872  0.36949  Biso   1.000  H 
  O103     1.0000 0.50000  0.17046  0.40470  Biso   1.000  O 
  C160     1.0000 0.50000  0.15360  0.34640  Biso   1.000  C 
  O104     1.0000 0.50000  0.09529  0.32954  Biso   1.000  O 
  H117     1.0000 0.50352  0.11244  0.16440  Biso   1.000  H 
  H118     1.0000 0.45884  0.09440  0.22579  Biso   1.000  H 
  H119     1.0000 0.54655  0.39385  0.31148  Biso   1.000  H 
  H120     1.0000 0.46299  0.39290  0.32037  Biso   1.000  H 
  C161     1.0000 0.00000  0.84640  0.84640  Biso   1.000  C 
  O105     1.0000 0.00000  0.90471  0.82954  Biso   1.000  O 
  O106     1.0000 0.00000  0.82954  0.90471  Biso   1.000  O 
  C162     1.0000 0.00000  0.79500  0.79500  Biso   1.000  C 
  C163     1.0000 0.00000  0.73249  0.81563  Biso   1.000  C 
  H121     1.0000 0.00000  0.72128  0.86954  Biso   1.000  H 
  N41      1.0000 0.99847  0.61484  0.78936  Biso   1.000  N 
  C164     1.0000 0.00000  0.68442  0.76752  Biso   1.000  C 
  C165     1.0000 0.00000  0.70500  0.70501  Biso   1.000  C 
  C166     1.0000 0.00000  0.76751  0.68442  Biso   1.000  C 
  C167     1.0000 0.00000  0.81563  0.73249  Biso   1.000  C 
  N42      1.0000 0.99848  0.88528  0.71115  Biso   1.000  N 
  H122     1.0000 0.00000  0.77872  0.63051  Biso   1.000  H 
  O107     1.0000 0.00000  0.67046  0.59530  Biso   1.000  O 
  C168     1.0000 0.00000  0.65360  0.65361  Biso   1.000  C 
  O108     1.0000 0.00000  0.59529  0.67047  Biso   1.000  O 
  H123     1.0000 0.03722  0.60746  0.82050  Biso   1.000  H 
  H124     1.0000 0.95371  0.60621  0.81161  Biso   1.000  H 
  H125     1.0000 0.95339  0.89483  0.68975  Biso   1.000  H 
  H126     1.0000 0.03566  0.89581  0.67843  Biso   1.000  H 
  C169     1.0000 0.00000  0.34640  0.34640  Biso   1.000  C 
  O109     1.0000 0.00000  0.40471  0.32954  Biso   1.000  O 
  O110     1.0000 0.00000  0.32954  0.40471  Biso   1.000  O 
  C170     1.0000 0.00000  0.29500  0.29500  Biso   1.000  C 
  C171     1.0000 0.00000  0.23249  0.31563  Biso   1.000  C 
  H127     1.0000 0.00000  0.22128  0.36954  Biso   1.000  H 
  N43      1.0000 0.00246  0.11659  0.28964  Biso   1.000  N 
  C172     1.0000 0.00000  0.18442  0.26751  Biso   1.000  C 
  C173     1.0000 0.00000  0.20500  0.20500  Biso   1.000  C 
  C174     1.0000 0.00000  0.26751  0.18442  Biso   1.000  C 
  C175     1.0000 0.00000  0.31563  0.23249  Biso   1.000  C 
  N44      1.0000 0.00021  0.38510  0.21405  Biso   1.000  N 
  H128     1.0000 0.00000  0.27872  0.13051  Biso   1.000  H 
  O111     1.0000 0.00000  0.17046  0.09530  Biso   1.000  O 
  C176     1.0000 0.00000  0.15360  0.15360  Biso   1.000  C 
  O112     1.0000 0.00000  0.09529  0.17046  Biso   1.000  O 
  H129     1.0000 0.97624  0.11058  0.33299  Biso   1.000  H 
  H130     1.0000 0.05092  0.09953  0.29331  Biso   1.000  H 
  H131     1.0000 0.04286  0.39790  0.18946  Biso   1.000  H 
  H132     1.0000 0.95979  0.39762  0.18532  Biso   1.000  H 
  C177     1.0000 0.50000  0.84640  0.34640  Biso   1.000  C 
  O113     1.0000 0.50000  0.90471  0.32954  Biso   1.000  O 
  O114     1.0000 0.50000  0.82954  0.40471  Biso   1.000  O 
  C178     1.0000 0.50000  0.79500  0.29500  Biso   1.000  C 
  C179     1.0000 0.50000  0.73249  0.31563  Biso   1.000  C 
  H133     1.0000 0.50000  0.72128  0.36954  Biso   1.000  H 
  N45      1.0000 0.50005  0.61583  0.28737  Biso   1.000  N 
  C180     1.0000 0.50000  0.68442  0.26751  Biso   1.000  C 
  C181     1.0000 0.50000  0.70500  0.20500  Biso   1.000  C 
  C182     1.0000 0.50000  0.76751  0.18442  Biso   1.000  C 
  C183     1.0000 0.50000  0.81563  0.23249  Biso   1.000  C 
  N46      1.0000 0.49722  0.88747  0.21143  Biso   1.000  N 
  H134     1.0000 0.50000  0.77872  0.13051  Biso   1.000  H 
  O115     1.0000 0.50000  0.67046  0.09530  Biso   1.000  O 
  C184     1.0000 0.50000  0.65360  0.15360  Biso   1.000  C 
  O116     1.0000 0.50000  0.59529  0.17046  Biso   1.000  O 
  H135     1.0000 0.47458  0.61441  0.33172  Biso   1.000  H 
  H136     1.0000 0.54617  0.59807  0.29768  Biso   1.000  H 
  H137     1.0000 0.54264  0.91250  0.21674  Biso   1.000  H 
  H138     1.0000 0.47968  0.89846  0.16517  Biso   1.000  H 
  C185     1.0000 0.50000  0.34640  0.84640  Biso   1.000  C 
  O117     1.0000 0.50000  0.40471  0.82954  Biso   1.000  O 
  O118     1.0000 0.50000  0.32954  0.90471  Biso   1.000  O 
  C186     1.0000 0.50000  0.29500  0.79500  Biso   1.000  C 
  C187     1.0000 0.50000  0.23249  0.81563  Biso   1.000  C 
  H139     1.0000 0.50000  0.22128  0.86954  Biso   1.000  H 
  N47      1.0000 0.49862  0.11479  0.78893  Biso   1.000  N 
  C188     1.0000 0.50000  0.18442  0.76752  Biso   1.000  C 
  C189     1.0000 0.50000  0.20500  0.70501  Biso   1.000  C 
  C190     1.0000 0.50000  0.26751  0.68442  Biso   1.000  C 
  C191     1.0000 0.50000  0.31563  0.73249  Biso   1.000  C 
  N48      1.0000 0.49913  0.38485  0.71377  Biso   1.000  N 
  H140     1.0000 0.50000  0.27872  0.63051  Biso   1.000  H 
  O119     1.0000 0.50000  0.17046  0.59530  Biso   1.000  O 
  C192     1.0000 0.50000  0.15360  0.65361  Biso   1.000  C 
  O120     1.0000 0.50000  0.09529  0.67047  Biso   1.000  O 
  H141     1.0000 0.53586  0.10463  0.82174  Biso   1.000  H 
  H142     1.0000 0.45345  0.10520  0.81013  Biso   1.000  H 
  H143     1.0000 0.45679  0.39793  0.68889  Biso   1.000  H 
  H144     1.0000 0.53913  0.39689  0.68434  Biso   1.000  H 
