data_image0
_cell_length_a       20.7004
_cell_length_b       20.7004
_cell_length_c       20.7004
_cell_angle_alpha    90
_cell_angle_beta     90
_cell_angle_gamma    90

_symmetry_space_group_name_H-M    "P 1"
_symmetry_int_tables_number       1

loop_
  _symmetry_equiv_pos_as_xyz
  'x, y, z'

loop_
  _atom_site_label
  _atom_site_occupancy
  _atom_site_fract_x
  _atom_site_fract_y
  _atom_site_fract_z
  _atom_site_thermal_displace_type
  _atom_site_B_iso_or_equiv
  _atom_site_type_symbol
  Zr1      1.0000 0.11989  0.00000  0.00000  Biso   1.000  Zr
  Zr2      1.0000 0.11989  0.50000  0.50000  Biso   1.000  Zr
  Zr3      1.0000 0.61989  0.00000  0.50000  Biso   1.000  Zr
  Zr4      1.0000 0.61989  0.50000  0.00000  Biso   1.000  Zr
  Zr5      1.0000 0.88011  0.00000  0.00000  Biso   1.000  Zr
  Zr6      1.0000 0.88011  0.50000  0.50000  Biso   1.000  Zr
  Zr7      1.0000 0.38011  0.00000  0.50000  Biso   1.000  Zr
  Zr8      1.0000 0.38011  0.50000  0.00000  Biso   1.000  Zr
  Zr9      1.0000 0.00000  0.11989  0.00000  Biso   1.000  Zr
  Zr10     1.0000 0.00000  0.61989  0.50000  Biso   1.000  Zr
  Zr11     1.0000 0.50000  0.11989  0.50000  Biso   1.000  Zr
  Zr12     1.0000 0.50000  0.61989  0.00000  Biso   1.000  Zr
  Zr13     1.0000 0.00000  0.88011  0.00000  Biso   1.000  Zr
  Zr14     1.0000 0.00000  0.38011  0.50000  Biso   1.000  Zr
  Zr15     1.0000 0.50000  0.88011  0.50000  Biso   1.000  Zr
  Zr16     1.0000 0.50000  0.38011  0.00000  Biso   1.000  Zr
  Zr17     1.0000 0.00000  0.00000  0.11989  Biso   1.000  Zr
  Zr18     1.0000 0.00000  0.50000  0.61989  Biso   1.000  Zr
  Zr19     1.0000 0.50000  0.00000  0.61989  Biso   1.000  Zr
  Zr20     1.0000 0.50000  0.50000  0.11989  Biso   1.000  Zr
  Zr21     1.0000 0.00000  0.00000  0.88011  Biso   1.000  Zr
  Zr22     1.0000 0.00000  0.50000  0.38011  Biso   1.000  Zr
  Zr23     1.0000 0.50000  0.00000  0.38011  Biso   1.000  Zr
  Zr24     1.0000 0.50000  0.50000  0.88011  Biso   1.000  Zr
  O1       1.0000 0.05610  0.44390  0.44390  Biso   1.000  O 
  O2       1.0000 0.55610  0.94390  0.44390  Biso   1.000  O 
  O3       1.0000 0.55610  0.44390  0.94390  Biso   1.000  O 
  O4       1.0000 0.44390  0.05610  0.44390  Biso   1.000  O 
  O5       1.0000 0.44390  0.55610  0.94390  Biso   1.000  O 
  O6       1.0000 0.94390  0.94390  0.05610  Biso   1.000  O 
  O7       1.0000 0.94390  0.44390  0.55610  Biso   1.000  O 
  O8       1.0000 0.05610  0.05610  0.05610  Biso   1.000  O 
  O9       1.0000 0.55610  0.55610  0.05610  Biso   1.000  O 
  O10      1.0000 0.94390  0.05610  0.05610  Biso   1.000  O 
  O11      1.0000 0.94390  0.55610  0.55610  Biso   1.000  O 
  O12      1.0000 0.44390  0.05610  0.55610  Biso   1.000  O 
  O13      1.0000 0.44390  0.55610  0.05610  Biso   1.000  O 
  O14      1.0000 0.05610  0.94390  0.05610  Biso   1.000  O 
  O15      1.0000 0.05610  0.44390  0.55610  Biso   1.000  O 
  O16      1.0000 0.55610  0.94390  0.55610  Biso   1.000  O 
  O17      1.0000 0.55610  0.44390  0.05610  Biso   1.000  O 
  O18      1.0000 0.94390  0.94390  0.94390  Biso   1.000  O 
  O19      1.0000 0.94390  0.44390  0.44390  Biso   1.000  O 
  O20      1.0000 0.44390  0.94390  0.44390  Biso   1.000  O 
  O21      1.0000 0.44390  0.44390  0.94390  Biso   1.000  O 
  O22      1.0000 0.05610  0.05610  0.94390  Biso   1.000  O 
  O23      1.0000 0.05610  0.55610  0.44390  Biso   1.000  O 
  O24      1.0000 0.55610  0.05610  0.44390  Biso   1.000  O 
  C1       1.0000 0.15360  0.00000  0.84640  Biso   1.000  C 
  O25      1.0000 0.17046  0.00000  0.90471  Biso   1.000  O 
  O26      1.0000 0.09529  0.00000  0.82954  Biso   1.000  O 
  C2       1.0000 0.20500  0.00000  0.79500  Biso   1.000  C 
  C3       1.0000 0.18437  0.00000  0.73249  Biso   1.000  C 
  N1       1.0000 0.11395  0.99958  0.71278  Biso   1.000  N 
  H1       1.0000 0.22128  0.00000  0.63051  Biso   1.000  H 
  C4       1.0000 0.23249  0.00000  0.68442  Biso   1.000  C 
  C5       1.0000 0.29500  0.00000  0.70500  Biso   1.000  C 
  C6       1.0000 0.31558  0.00000  0.76751  Biso   1.000  C 
  C7       1.0000 0.26751  0.00000  0.81563  Biso   1.000  C 
  H2       1.0000 0.27872  0.00000  0.86954  Biso   1.000  H 
  N2       1.0000 0.38592  0.99932  0.78738  Biso   1.000  N 
  O27      1.0000 0.40470  0.00000  0.67046  Biso   1.000  O 
  C8       1.0000 0.34640  0.00000  0.65360  Biso   1.000  C 
  O28      1.0000 0.32954  0.00000  0.59529  Biso   1.000  O 
  N3       1.0000 0.10369  0.99520  0.65417  Biso   1.000  N 
  N4       1.0000 0.09452  0.99128  0.59696  Biso   1.000  N 
  N5       1.0000 0.39521  0.00096  0.84625  Biso   1.000  N 
  N6       1.0000 0.40265  0.00222  0.90380  Biso   1.000  N 
  C9       1.0000 0.15360  0.50000  0.34640  Biso   1.000  C 
  O29      1.0000 0.17046  0.50000  0.40471  Biso   1.000  O 
  O30      1.0000 0.09529  0.50000  0.32954  Biso   1.000  O 
  C10      1.0000 0.20500  0.50000  0.29500  Biso   1.000  C 
  C11      1.0000 0.18437  0.50000  0.23249  Biso   1.000  C 
  N7       1.0000 0.11420  0.49329  0.21344  Biso   1.000  N 
  H3       1.0000 0.22128  0.50000  0.13051  Biso   1.000  H 
  C12      1.0000 0.23249  0.50000  0.18442  Biso   1.000  C 
  C13      1.0000 0.29500  0.50000  0.20500  Biso   1.000  C 
  C14      1.0000 0.31558  0.50000  0.26751  Biso   1.000  C 
  C15      1.0000 0.26751  0.50000  0.31563  Biso   1.000  C 
  H4       1.0000 0.27872  0.50000  0.36954  Biso   1.000  H 
  N8       1.0000 0.38588  0.50068  0.28779  Biso   1.000  N 
  O31      1.0000 0.40470  0.50000  0.17046  Biso   1.000  O 
  C16      1.0000 0.34640  0.50000  0.15360  Biso   1.000  C 
  O32      1.0000 0.32954  0.50000  0.09529  Biso   1.000  O 
  N9       1.0000 0.10372  0.49677  0.15497  Biso   1.000  N 
  N10      1.0000 0.09482  0.50088  0.09780  Biso   1.000  N 
  N11      1.0000 0.39452  0.50139  0.34687  Biso   1.000  N 
  N12      1.0000 0.40097  0.50156  0.40461  Biso   1.000  N 
  C17      1.0000 0.65360  0.00000  0.34640  Biso   1.000  C 
  O33      1.0000 0.67046  0.00000  0.40471  Biso   1.000  O 
  O34      1.0000 0.59529  0.00000  0.32954  Biso   1.000  O 
  C18      1.0000 0.70500  0.00000  0.29500  Biso   1.000  C 
  C19      1.0000 0.68437  0.00000  0.23249  Biso   1.000  C 
  N13      1.0000 0.61408  0.99585  0.21324  Biso   1.000  N 
  H5       1.0000 0.72128  0.00000  0.13051  Biso   1.000  H 
  C20      1.0000 0.73248  0.00000  0.18442  Biso   1.000  C 
  C21      1.0000 0.79499  0.00000  0.20500  Biso   1.000  C 
  C22      1.0000 0.81558  0.00000  0.26751  Biso   1.000  C 
  C23      1.0000 0.76751  0.00000  0.31563  Biso   1.000  C 
  H6       1.0000 0.77872  0.00000  0.36954  Biso   1.000  H 
  N14      1.0000 0.88582  0.00219  0.28818  Biso   1.000  N 
  O35      1.0000 0.90470  0.00000  0.17046  Biso   1.000  O 
  C24      1.0000 0.84639  0.00000  0.15360  Biso   1.000  C 
  O36      1.0000 0.82953  0.00000  0.09529  Biso   1.000  O 
  N15      1.0000 0.60421  0.99850  0.15461  Biso   1.000  N 
  N16      1.0000 0.59614  0.00173  0.09726  Biso   1.000  N 
  N17      1.0000 0.89382  0.00250  0.34745  Biso   1.000  N 
  N18      1.0000 0.89931  0.00201  0.40534  Biso   1.000  N 
  C25      1.0000 0.65360  0.50000  0.84640  Biso   1.000  C 
  O37      1.0000 0.67046  0.50000  0.90471  Biso   1.000  O 
  O38      1.0000 0.59529  0.50000  0.82954  Biso   1.000  O 
  C26      1.0000 0.70500  0.50000  0.79500  Biso   1.000  C 
  C27      1.0000 0.68437  0.50000  0.73249  Biso   1.000  C 
  N19      1.0000 0.61405  0.49535  0.71365  Biso   1.000  N 
  H7       1.0000 0.72128  0.50000  0.63051  Biso   1.000  H 
  C28      1.0000 0.73248  0.50000  0.68442  Biso   1.000  C 
  C29      1.0000 0.79499  0.50000  0.70500  Biso   1.000  C 
  C30      1.0000 0.81558  0.50000  0.76751  Biso   1.000  C 
  C31      1.0000 0.76751  0.50000  0.81563  Biso   1.000  C 
  H8       1.0000 0.77872  0.50000  0.86954  Biso   1.000  H 
  N20      1.0000 0.88573  0.49945  0.78886  Biso   1.000  N 
  O39      1.0000 0.90470  0.50000  0.67046  Biso   1.000  O 
  C32      1.0000 0.84639  0.50000  0.65360  Biso   1.000  C 
  O40      1.0000 0.82953  0.50000  0.59529  Biso   1.000  O 
  N21      1.0000 0.60357  0.49899  0.65529  Biso   1.000  N 
  N22      1.0000 0.59475  0.50312  0.59815  Biso   1.000  N 
  N23      1.0000 0.89370  0.50415  0.84810  Biso   1.000  N 
  N24      1.0000 0.89957  0.50837  0.90586  Biso   1.000  N 
  C33      1.0000 0.84640  0.00000  0.84640  Biso   1.000  C 
  O41      1.0000 0.82954  0.00000  0.90471  Biso   1.000  O 
  O42      1.0000 0.90471  0.00000  0.82954  Biso   1.000  O 
  C34      1.0000 0.79500  0.00000  0.79500  Biso   1.000  C 
  C35      1.0000 0.81563  0.00000  0.73249  Biso   1.000  C 
  N25      1.0000 0.88537  0.99228  0.71402  Biso   1.000  N 
  H9       1.0000 0.77872  0.00000  0.63051  Biso   1.000  H 
  C36      1.0000 0.76752  0.00000  0.68442  Biso   1.000  C 
  C37      1.0000 0.70501  0.00000  0.70500  Biso   1.000  C 
  C38      1.0000 0.68442  0.00000  0.76751  Biso   1.000  C 
  C39      1.0000 0.73249  0.00000  0.81563  Biso   1.000  C 
  H10      1.0000 0.72128  0.00000  0.86954  Biso   1.000  H 
  N26      1.0000 0.61460  0.00736  0.78585  Biso   1.000  N 
  O43      1.0000 0.59530  0.00000  0.67046  Biso   1.000  O 
  C40      1.0000 0.65361  0.00000  0.65360  Biso   1.000  C 
  O44      1.0000 0.67047  0.00000  0.59529  Biso   1.000  O 
  N27      1.0000 0.89526  0.94279  0.68362  Biso   1.000  N 
  N28      1.0000 0.90287  0.89410  0.65397  Biso   1.000  N 
  N29      1.0000 0.60449  0.05644  0.81681  Biso   1.000  N 
  N30      1.0000 0.59663  0.10467  0.84711  Biso   1.000  N 
  C41      1.0000 0.84640  0.50000  0.34640  Biso   1.000  C 
  O45      1.0000 0.82954  0.50000  0.40471  Biso   1.000  O 
  O46      1.0000 0.90471  0.50000  0.32954  Biso   1.000  O 
  C42      1.0000 0.79500  0.50000  0.29500  Biso   1.000  C 
  C43      1.0000 0.81563  0.50000  0.23249  Biso   1.000  C 
  N31      1.0000 0.88527  0.49244  0.21391  Biso   1.000  N 
  H11      1.0000 0.77872  0.50000  0.13051  Biso   1.000  H 
  C44      1.0000 0.76752  0.50000  0.18442  Biso   1.000  C 
  C45      1.0000 0.70501  0.50000  0.20500  Biso   1.000  C 
  C46      1.0000 0.68442  0.50000  0.26751  Biso   1.000  C 
  C47      1.0000 0.73249  0.50000  0.31563  Biso   1.000  C 
  H12      1.0000 0.72128  0.50000  0.36954  Biso   1.000  H 
  N32      1.0000 0.61451  0.50610  0.28585  Biso   1.000  N 
  O47      1.0000 0.59530  0.50000  0.17046  Biso   1.000  O 
  C48      1.0000 0.65361  0.50000  0.15360  Biso   1.000  C 
  O48      1.0000 0.67047  0.50000  0.09529  Biso   1.000  O 
  N33      1.0000 0.89481  0.44209  0.18487  Biso   1.000  N 
  N34      1.0000 0.90174  0.39248  0.15661  Biso   1.000  N 
  N35      1.0000 0.60370  0.55480  0.31710  Biso   1.000  N 
  N36      1.0000 0.59521  0.60270  0.34772  Biso   1.000  N 
  C49      1.0000 0.34640  0.00000  0.34640  Biso   1.000  C 
  O49      1.0000 0.32954  0.00000  0.40471  Biso   1.000  O 
  O50      1.0000 0.40471  0.00000  0.32954  Biso   1.000  O 
  C50      1.0000 0.29500  0.00000  0.29500  Biso   1.000  C 
  C51      1.0000 0.31563  0.00000  0.23249  Biso   1.000  C 
  N37      1.0000 0.38550  0.99463  0.21393  Biso   1.000  N 
  H13      1.0000 0.27872  0.00000  0.13051  Biso   1.000  H 
  C52      1.0000 0.26751  0.00000  0.18442  Biso   1.000  C 
  C53      1.0000 0.20500  0.00000  0.20500  Biso   1.000  C 
  C54      1.0000 0.18442  0.00000  0.26751  Biso   1.000  C 
  C55      1.0000 0.23249  0.00000  0.31563  Biso   1.000  C 
  H14      1.0000 0.22128  0.00000  0.36954  Biso   1.000  H 
  N38      1.0000 0.11467  0.00598  0.28605  Biso   1.000  N 
  O51      1.0000 0.09530  0.00000  0.17046  Biso   1.000  O 
  C56      1.0000 0.15360  0.00000  0.15360  Biso   1.000  C 
  O52      1.0000 0.17046  0.00000  0.09529  Biso   1.000  O 
  N39      1.0000 0.39659  0.94574  0.18308  Biso   1.000  N 
  N40      1.0000 0.40527  0.89754  0.15296  Biso   1.000  N 
  N41      1.0000 0.10438  0.05587  0.31551  Biso   1.000  N 
  N42      1.0000 0.09689  0.10505  0.34432  Biso   1.000  N 
  C57      1.0000 0.34640  0.50000  0.84640  Biso   1.000  C 
  O53      1.0000 0.32954  0.50000  0.90471  Biso   1.000  O 
  O54      1.0000 0.40471  0.50000  0.82954  Biso   1.000  O 
  C58      1.0000 0.29500  0.50000  0.79500  Biso   1.000  C 
  C59      1.0000 0.31563  0.50000  0.73249  Biso   1.000  C 
  N43      1.0000 0.38542  0.49322  0.71396  Biso   1.000  N 
  H15      1.0000 0.27872  0.50000  0.63051  Biso   1.000  H 
  C60      1.0000 0.26751  0.50000  0.68442  Biso   1.000  C 
  C61      1.0000 0.20500  0.50000  0.70500  Biso   1.000  C 
  C62      1.0000 0.18442  0.50000  0.76751  Biso   1.000  C 
  C63      1.0000 0.23249  0.50000  0.81563  Biso   1.000  C 
  H16      1.0000 0.22128  0.50000  0.86954  Biso   1.000  H 
  N44      1.0000 0.11460  0.50613  0.78602  Biso   1.000  N 
  O55      1.0000 0.09530  0.50000  0.67046  Biso   1.000  O 
  C64      1.0000 0.15360  0.50000  0.65360  Biso   1.000  C 
  O56      1.0000 0.17046  0.50000  0.59529  Biso   1.000  O 
  N45      1.0000 0.39576  0.44393  0.68342  Biso   1.000  N 
  N46      1.0000 0.40377  0.39539  0.65364  Biso   1.000  N 
  N47      1.0000 0.10409  0.55553  0.81628  Biso   1.000  N 
  N48      1.0000 0.09614  0.60423  0.84578  Biso   1.000  N 
  C65      1.0000 0.84640  0.15360  0.00000  Biso   1.000  C 
  O57      1.0000 0.90471  0.17046  0.00000  Biso   1.000  O 
  O58      1.0000 0.82954  0.09529  0.00000  Biso   1.000  O 
  C66      1.0000 0.79500  0.20500  0.00000  Biso   1.000  C 
  C67      1.0000 0.73249  0.18437  0.00000  Biso   1.000  C 
  N49      1.0000 0.71266  0.11405  0.99681  Biso   1.000  N 
  H17      1.0000 0.63051  0.22128  0.00000  Biso   1.000  H 
  C68      1.0000 0.68442  0.23249  0.00000  Biso   1.000  C 
  C69      1.0000 0.70500  0.29500  0.00000  Biso   1.000  C 
  C70      1.0000 0.76751  0.31558  0.00000  Biso   1.000  C 
  C71      1.0000 0.81563  0.26751  0.00000  Biso   1.000  C 
  H18      1.0000 0.86954  0.27872  0.00000  Biso   1.000  H 
  N50      1.0000 0.78703  0.38598  0.00290  Biso   1.000  N 
  O59      1.0000 0.67046  0.40470  0.00000  Biso   1.000  O 
  C72      1.0000 0.65360  0.34640  0.00000  Biso   1.000  C 
  O60      1.0000 0.59529  0.32954  0.00000  Biso   1.000  O 
  N51      1.0000 0.65377  0.10456  0.99776  Biso   1.000  N 
  N52      1.0000 0.59623  0.09680  0.99923  Biso   1.000  N 
  N53      1.0000 0.84573  0.39615  0.00138  Biso   1.000  N 
  N54      1.0000 0.90306  0.40488  0.99936  Biso   1.000  N 
  C73      1.0000 0.84640  0.65360  0.50000  Biso   1.000  C 
  O61      1.0000 0.90471  0.67046  0.50000  Biso   1.000  O 
  O62      1.0000 0.82954  0.59529  0.50000  Biso   1.000  O 
  C74      1.0000 0.79500  0.70500  0.50000  Biso   1.000  C 
  C75      1.0000 0.73249  0.68437  0.50000  Biso   1.000  C 
  N55      1.0000 0.71258  0.61410  0.49615  Biso   1.000  N 
  H19      1.0000 0.63051  0.72128  0.50000  Biso   1.000  H 
  C76      1.0000 0.68442  0.73248  0.50000  Biso   1.000  C 
  C77      1.0000 0.70500  0.79499  0.50000  Biso   1.000  C 
  C78      1.0000 0.76751  0.81558  0.50000  Biso   1.000  C 
  C79      1.0000 0.81563  0.76751  0.50000  Biso   1.000  C 
  H20      1.0000 0.86954  0.77872  0.50000  Biso   1.000  H 
  N56      1.0000 0.78842  0.88581  0.49948  Biso   1.000  N 
  O63      1.0000 0.67046  0.90470  0.50000  Biso   1.000  O 
  C80      1.0000 0.65360  0.84639  0.50000  Biso   1.000  C 
  O64      1.0000 0.59529  0.82953  0.50000  Biso   1.000  O 
  N57      1.0000 0.65364  0.60490  0.49776  Biso   1.000  N 
  N58      1.0000 0.59605  0.59769  0.50002  Biso   1.000  N 
  N59      1.0000 0.84759  0.89433  0.50290  Biso   1.000  N 
  N60      1.0000 0.90530  0.90095  0.50592  Biso   1.000  N 
  C81      1.0000 0.34640  0.15360  0.50000  Biso   1.000  C 
  O65      1.0000 0.40471  0.17046  0.50000  Biso   1.000  O 
  O66      1.0000 0.32954  0.09529  0.50000  Biso   1.000  O 
  C82      1.0000 0.29500  0.20500  0.50000  Biso   1.000  C 
  C83      1.0000 0.23249  0.18437  0.50000  Biso   1.000  C 
  N61      1.0000 0.21488  0.11436  0.49149  Biso   1.000  N 
  H21      1.0000 0.13051  0.22128  0.50000  Biso   1.000  H 
  C84      1.0000 0.18442  0.23249  0.50000  Biso   1.000  C 
  C85      1.0000 0.20500  0.29500  0.50000  Biso   1.000  C 
  C86      1.0000 0.26751  0.31558  0.50000  Biso   1.000  C 
  C87      1.0000 0.31563  0.26751  0.50000  Biso   1.000  C 
  H22      1.0000 0.36954  0.27872  0.50000  Biso   1.000  H 
  N62      1.0000 0.28765  0.38592  0.50073  Biso   1.000  N 
  O67      1.0000 0.17046  0.40470  0.50000  Biso   1.000  O 
  C88      1.0000 0.15360  0.34640  0.50000  Biso   1.000  C 
  O68      1.0000 0.09529  0.32954  0.50000  Biso   1.000  O 
  N63      1.0000 0.15755  0.10241  0.49945  Biso   1.000  N 
  N64      1.0000 0.10131  0.09212  0.50797  Biso   1.000  N 
  N65      1.0000 0.34670  0.39464  0.50092  Biso   1.000  N 
  N66      1.0000 0.40442  0.40109  0.50057  Biso   1.000  N 
  C89      1.0000 0.34640  0.65360  0.00000  Biso   1.000  C 
  O69      1.0000 0.40471  0.67046  0.00000  Biso   1.000  O 
  O70      1.0000 0.32954  0.59529  0.00000  Biso   1.000  O 
  C90      1.0000 0.29500  0.70500  0.00000  Biso   1.000  C 
  C91      1.0000 0.23249  0.68437  0.00000  Biso   1.000  C 
  N67      1.0000 0.21301  0.61410  0.99514  Biso   1.000  N 
  H23      1.0000 0.13051  0.72128  0.00000  Biso   1.000  H 
  C92      1.0000 0.18442  0.73248  0.00000  Biso   1.000  C 
  C93      1.0000 0.20500  0.79499  0.00000  Biso   1.000  C 
  C94      1.0000 0.26751  0.81558  0.00000  Biso   1.000  C 
  C95      1.0000 0.31563  0.76751  0.00000  Biso   1.000  C 
  H24      1.0000 0.36954  0.77872  0.00000  Biso   1.000  H 
  N68      1.0000 0.28728  0.88593  0.00259  Biso   1.000  N 
  O71      1.0000 0.17046  0.90470  0.00000  Biso   1.000  O 
  C96      1.0000 0.15360  0.84639  0.00000  Biso   1.000  C 
  O72      1.0000 0.09529  0.82953  0.00000  Biso   1.000  O 
  N69      1.0000 0.15429  0.60396  0.99642  Biso   1.000  N 
  N70      1.0000 0.09693  0.59520  0.99822  Biso   1.000  N 
  N71      1.0000 0.34616  0.89477  0.99989  Biso   1.000  N 
  N72      1.0000 0.40376  0.90107  0.99645  Biso   1.000  N 
  C97      1.0000 0.84640  0.84640  0.00000  Biso   1.000  C 
  O73      1.0000 0.90471  0.82954  0.00000  Biso   1.000  O 
  O74      1.0000 0.82954  0.90471  0.00000  Biso   1.000  O 
  C98      1.0000 0.79500  0.79500  0.00000  Biso   1.000  C 
  C99      1.0000 0.73249  0.81563  0.00000  Biso   1.000  C 
  N73      1.0000 0.71411  0.88551  0.99366  Biso   1.000  N 
  H25      1.0000 0.63051  0.77872  0.00000  Biso   1.000  H 
  C100     1.0000 0.68442  0.76752  0.00000  Biso   1.000  C 
  C101     1.0000 0.70500  0.70501  0.00000  Biso   1.000  C 
  C102     1.0000 0.76751  0.68442  0.00000  Biso   1.000  C 
  C103     1.0000 0.81563  0.73249  0.00000  Biso   1.000  C 
  H26      1.0000 0.86954  0.72128  0.00000  Biso   1.000  H 
  N74      1.0000 0.78609  0.61467  0.00692  Biso   1.000  N 
  O75      1.0000 0.67046  0.59530  0.00000  Biso   1.000  O 
  C104     1.0000 0.65360  0.65361  0.00000  Biso   1.000  C 
  O76      1.0000 0.59529  0.67047  0.00000  Biso   1.000  O 
  N75      1.0000 0.68269  0.89633  0.94505  Biso   1.000  N 
  N76      1.0000 0.65195  0.90495  0.89723  Biso   1.000  N 
  N77      1.0000 0.81555  0.60461  0.05692  Biso   1.000  N 
  N78      1.0000 0.84421  0.59718  0.10623  Biso   1.000  N 
  C105     1.0000 0.84640  0.34640  0.50000  Biso   1.000  C 
  O77      1.0000 0.90471  0.32954  0.50000  Biso   1.000  O 
  O78      1.0000 0.82954  0.40471  0.50000  Biso   1.000  O 
  C106     1.0000 0.79500  0.29500  0.50000  Biso   1.000  C 
  C107     1.0000 0.73249  0.31563  0.50000  Biso   1.000  C 
  N79      1.0000 0.71400  0.38545  0.49364  Biso   1.000  N 
  H27      1.0000 0.63051  0.27872  0.50000  Biso   1.000  H 
  C108     1.0000 0.68442  0.26751  0.50000  Biso   1.000  C 
  C109     1.0000 0.70500  0.20500  0.50000  Biso   1.000  C 
  C110     1.0000 0.76751  0.18442  0.50000  Biso   1.000  C 
  C111     1.0000 0.81563  0.23249  0.50000  Biso   1.000  C 
  H28      1.0000 0.86954  0.22128  0.50000  Biso   1.000  H 
  N80      1.0000 0.78592  0.11443  0.50484  Biso   1.000  N 
  O79      1.0000 0.67046  0.09530  0.50000  Biso   1.000  O 
  C112     1.0000 0.65360  0.15360  0.50000  Biso   1.000  C 
  O80      1.0000 0.59529  0.17046  0.50000  Biso   1.000  O 
  N81      1.0000 0.68330  0.39599  0.44451  Biso   1.000  N 
  N82      1.0000 0.65332  0.40420  0.39614  Biso   1.000  N 
  N83      1.0000 0.81758  0.10280  0.55308  Biso   1.000  N 
  N84      1.0000 0.84855  0.09353  0.60060  Biso   1.000  N 
  C113     1.0000 0.34640  0.84640  0.50000  Biso   1.000  C 
  O81      1.0000 0.40471  0.82954  0.50000  Biso   1.000  O 
  O82      1.0000 0.32954  0.90471  0.50000  Biso   1.000  O 
  C114     1.0000 0.29500  0.79500  0.50000  Biso   1.000  C 
  C115     1.0000 0.23249  0.81563  0.50000  Biso   1.000  C 
  N85      1.0000 0.21391  0.88536  0.49306  Biso   1.000  N 
  H29      1.0000 0.13051  0.77872  0.50000  Biso   1.000  H 
  C116     1.0000 0.18442  0.76752  0.50000  Biso   1.000  C 
  C117     1.0000 0.20500  0.70501  0.50000  Biso   1.000  C 
  C118     1.0000 0.26751  0.68442  0.50000  Biso   1.000  C 
  C119     1.0000 0.31563  0.73249  0.50000  Biso   1.000  C 
  H30      1.0000 0.36954  0.72128  0.50000  Biso   1.000  H 
  N86      1.0000 0.28584  0.61470  0.50807  Biso   1.000  N 
  O83      1.0000 0.17046  0.59530  0.50000  Biso   1.000  O 
  C120     1.0000 0.15360  0.65361  0.50000  Biso   1.000  C 
  O84      1.0000 0.09529  0.67047  0.50000  Biso   1.000  O 
  N87      1.0000 0.18420  0.89542  0.44322  Biso   1.000  N 
  N88      1.0000 0.15528  0.90294  0.39409  Biso   1.000  N 
  N89      1.0000 0.31625  0.60515  0.55760  Biso   1.000  N 
  N90      1.0000 0.34601  0.59788  0.60628  Biso   1.000  N 
  C121     1.0000 0.34640  0.34640  0.00000  Biso   1.000  C 
  O85      1.0000 0.40471  0.32954  0.00000  Biso   1.000  O 
  O86      1.0000 0.32954  0.40471  0.00000  Biso   1.000  O 
  C122     1.0000 0.29500  0.29500  0.00000  Biso   1.000  C 
  C123     1.0000 0.23249  0.31563  0.00000  Biso   1.000  C 
  N91      1.0000 0.21395  0.38558  0.99630  Biso   1.000  N 
  H31      1.0000 0.13051  0.27872  0.00000  Biso   1.000  H 
  C124     1.0000 0.18442  0.26751  0.00000  Biso   1.000  C 
  C125     1.0000 0.20500  0.20500  0.00000  Biso   1.000  C 
  C126     1.0000 0.26751  0.18442  0.00000  Biso   1.000  C 
  C127     1.0000 0.31563  0.23249  0.00000  Biso   1.000  C 
  H32      1.0000 0.36954  0.22128  0.00000  Biso   1.000  H 
  N92      1.0000 0.28585  0.11468  0.00764  Biso   1.000  N 
  O87      1.0000 0.17046  0.09530  0.00000  Biso   1.000  O 
  C128     1.0000 0.15360  0.15360  0.00000  Biso   1.000  C 
  O88      1.0000 0.09529  0.17046  0.00000  Biso   1.000  O 
  N93      1.0000 0.18280  0.39768  0.94788  Biso   1.000  N 
  N94      1.0000 0.15241  0.40722  0.90004  Biso   1.000  N 
  N95      1.0000 0.31603  0.10498  0.05726  Biso   1.000  N 
  N96      1.0000 0.34560  0.09767  0.10603  Biso   1.000  N 
  C129     1.0000 0.00000  0.84640  0.15360  Biso   1.000  C 
  O89      1.0000 0.00000  0.90471  0.17046  Biso   1.000  O 
  O90      1.0000 0.00000  0.82954  0.09529  Biso   1.000  O 
  C130     1.0000 0.00000  0.79500  0.20500  Biso   1.000  C 
  C131     1.0000 0.00000  0.73249  0.18437  Biso   1.000  C 
  N97      1.0000 0.99444  0.71356  0.11404  Biso   1.000  N 
  H33      1.0000 0.00000  0.63051  0.22128  Biso   1.000  H 
  C132     1.0000 0.00000  0.68442  0.23249  Biso   1.000  C 
  C133     1.0000 0.00000  0.70500  0.29500  Biso   1.000  C 
  C134     1.0000 0.00000  0.76751  0.31558  Biso   1.000  C 
  C135     1.0000 0.00000  0.81563  0.26751  Biso   1.000  C 
  H34      1.0000 0.00000  0.86954  0.27872  Biso   1.000  H 
  N98      1.0000 0.00278  0.78713  0.38598  Biso   1.000  N 
  O91      1.0000 0.00000  0.67046  0.40470  Biso   1.000  O 
  C136     1.0000 0.00000  0.65360  0.34640  Biso   1.000  C 
  O92      1.0000 0.00000  0.59529  0.32954  Biso   1.000  O 
  N99      1.0000 0.99730  0.65516  0.10314  Biso   1.000  N 
  N100     1.0000 0.00058  0.59805  0.09357  Biso   1.000  N 
  N101     1.0000 0.00057  0.84589  0.39568  Biso   1.000  N 
  N102     1.0000 0.99781  0.90333  0.40351  Biso   1.000  N 
  C137     1.0000 0.00000  0.34640  0.65360  Biso   1.000  C 
  O93      1.0000 0.00000  0.40471  0.67046  Biso   1.000  O 
  O94      1.0000 0.00000  0.32954  0.59529  Biso   1.000  O 
  C138     1.0000 0.00000  0.29500  0.70500  Biso   1.000  C 
  C139     1.0000 0.00000  0.23249  0.68437  Biso   1.000  C 
  N103     1.0000 0.99664  0.21180  0.61415  Biso   1.000  N 
  H35      1.0000 0.00000  0.13051  0.72128  Biso   1.000  H 
  C140     1.0000 0.00000  0.18442  0.73248  Biso   1.000  C 
  C141     1.0000 0.00000  0.20500  0.79499  Biso   1.000  C 
  C142     1.0000 0.00000  0.26751  0.81558  Biso   1.000  C 
  C143     1.0000 0.00000  0.31563  0.76751  Biso   1.000  C 
  H36      1.0000 0.00000  0.36954  0.77872  Biso   1.000  H 
  N104     1.0000 0.00415  0.28795  0.88584  Biso   1.000  N 
  O95      1.0000 0.00000  0.17046  0.90470  Biso   1.000  O 
  C144     1.0000 0.00000  0.15360  0.84639  Biso   1.000  C 
  O96      1.0000 0.00000  0.09529  0.82953  Biso   1.000  O 
  N105     1.0000 0.99736  0.15253  0.60583  Biso   1.000  N 
  N106     1.0000 0.99883  0.09469  0.59976  Biso   1.000  N 
  N107     1.0000 0.00213  0.34709  0.89443  Biso   1.000  N 
  N108     1.0000 0.99931  0.40485  0.90066  Biso   1.000  N 
  C145     1.0000 0.50000  0.84640  0.65360  Biso   1.000  C 
  O97      1.0000 0.50000  0.90471  0.67046  Biso   1.000  O 
  O98      1.0000 0.50000  0.82954  0.59529  Biso   1.000  O 
  C146     1.0000 0.50000  0.79500  0.70500  Biso   1.000  C 
  C147     1.0000 0.50000  0.73249  0.68437  Biso   1.000  C 
  N109     1.0000 0.49817  0.71276  0.61402  Biso   1.000  N 
  H37      1.0000 0.50000  0.63051  0.72128  Biso   1.000  H 
  C148     1.0000 0.50000  0.68442  0.73248  Biso   1.000  C 
  C149     1.0000 0.50000  0.70500  0.79499  Biso   1.000  C 
  C150     1.0000 0.50000  0.76751  0.81558  Biso   1.000  C 
  C151     1.0000 0.50000  0.81563  0.76751  Biso   1.000  C 
  H38      1.0000 0.50000  0.86954  0.77872  Biso   1.000  H 
  N110     1.0000 0.49938  0.78859  0.88574  Biso   1.000  N 
  O99      1.0000 0.50000  0.67046  0.90470  Biso   1.000  O 
  C152     1.0000 0.50000  0.65360  0.84639  Biso   1.000  C 
  O100     1.0000 0.50000  0.59529  0.82953  Biso   1.000  O 
  N111     1.0000 0.49711  0.65392  0.60436  Biso   1.000  N 
  N112     1.0000 0.49652  0.59643  0.59625  Biso   1.000  N 
  N113     1.0000 0.50278  0.84788  0.89342  Biso   1.000  N 
  N114     1.0000 0.50562  0.90576  0.89858  Biso   1.000  N 
  C153     1.0000 0.50000  0.34640  0.15360  Biso   1.000  C 
  O101     1.0000 0.50000  0.40471  0.17046  Biso   1.000  O 
  O102     1.0000 0.50000  0.32954  0.09529  Biso   1.000  O 
  C154     1.0000 0.50000  0.29500  0.20500  Biso   1.000  C 
  C155     1.0000 0.50000  0.23249  0.18437  Biso   1.000  C 
  N115     1.0000 0.49697  0.21321  0.11400  Biso   1.000  N 
  H39      1.0000 0.50000  0.13051  0.22128  Biso   1.000  H 
  C156     1.0000 0.50000  0.18442  0.23249  Biso   1.000  C 
  C157     1.0000 0.50000  0.20500  0.29500  Biso   1.000  C 
  C158     1.0000 0.50000  0.26751  0.31558  Biso   1.000  C 
  C159     1.0000 0.50000  0.31563  0.26751  Biso   1.000  C 
  H40      1.0000 0.50000  0.36954  0.27872  Biso   1.000  H 
  N116     1.0000 0.50080  0.28775  0.38588  Biso   1.000  N 
  O103     1.0000 0.50000  0.17046  0.40470  Biso   1.000  O 
  C160     1.0000 0.50000  0.15360  0.34640  Biso   1.000  C 
  O104     1.0000 0.50000  0.09529  0.32954  Biso   1.000  O 
  N117     1.0000 0.49787  0.15452  0.10404  Biso   1.000  N 
  N118     1.0000 0.49929  0.09713  0.09575  Biso   1.000  N 
  N119     1.0000 0.50143  0.34684  0.39440  Biso   1.000  N 
  N120     1.0000 0.50143  0.40460  0.40058  Biso   1.000  N 
  C161     1.0000 0.00000  0.84640  0.84640  Biso   1.000  C 
  O105     1.0000 0.00000  0.90471  0.82954  Biso   1.000  O 
  O106     1.0000 0.00000  0.82954  0.90471  Biso   1.000  O 
  C162     1.0000 0.00000  0.79500  0.79500  Biso   1.000  C 
  C163     1.0000 0.00000  0.73249  0.81563  Biso   1.000  C 
  N121     1.0000 0.99329  0.71403  0.88544  Biso   1.000  N 
  H41      1.0000 0.00000  0.63051  0.77872  Biso   1.000  H 
  C164     1.0000 0.00000  0.68442  0.76752  Biso   1.000  C 
  C165     1.0000 0.00000  0.70500  0.70501  Biso   1.000  C 
  C166     1.0000 0.00000  0.76751  0.68442  Biso   1.000  C 
  C167     1.0000 0.00000  0.81563  0.73249  Biso   1.000  C 
  H42      1.0000 0.00000  0.86954  0.72128  Biso   1.000  H 
  N122     1.0000 0.00937  0.78591  0.61487  Biso   1.000  N 
  O107     1.0000 0.00000  0.67046  0.59530  Biso   1.000  O 
  C168     1.0000 0.00000  0.65360  0.65361  Biso   1.000  C 
  O108     1.0000 0.00000  0.59529  0.67047  Biso   1.000  O 
  N123     1.0000 0.94391  0.68365  0.89581  Biso   1.000  N 
  N124     1.0000 0.89527  0.65404  0.90377  Biso   1.000  N 
  N125     1.0000 0.05980  0.81516  0.60619  Biso   1.000  N 
  N126     1.0000 0.10938  0.84367  0.59987  Biso   1.000  N 
  C169     1.0000 0.00000  0.34640  0.34640  Biso   1.000  C 
  O109     1.0000 0.00000  0.40471  0.32954  Biso   1.000  O 
  O110     1.0000 0.00000  0.32954  0.40471  Biso   1.000  O 
  C170     1.0000 0.00000  0.29500  0.29500  Biso   1.000  C 
  C171     1.0000 0.00000  0.23249  0.31563  Biso   1.000  C 
  N127     1.0000 0.99560  0.21404  0.38555  Biso   1.000  N 
  H43      1.0000 0.00000  0.13051  0.27872  Biso   1.000  H 
  C172     1.0000 0.00000  0.18442  0.26751  Biso   1.000  C 
  C173     1.0000 0.00000  0.20500  0.20500  Biso   1.000  C 
  C174     1.0000 0.00000  0.26751  0.18442  Biso   1.000  C 
  C175     1.0000 0.00000  0.31563  0.23249  Biso   1.000  C 
  H44      1.0000 0.00000  0.36954  0.22128  Biso   1.000  H 
  N128     1.0000 0.00505  0.28601  0.11457  Biso   1.000  N 
  O111     1.0000 0.00000  0.17046  0.09530  Biso   1.000  O 
  C176     1.0000 0.00000  0.15360  0.15360  Biso   1.000  C 
  O112     1.0000 0.00000  0.09529  0.17046  Biso   1.000  O 
  N129     1.0000 0.94713  0.18280  0.39720  Biso   1.000  N 
  N130     1.0000 0.89933  0.15224  0.40639  Biso   1.000  N 
  N131     1.0000 0.05437  0.31616  0.10355  Biso   1.000  N 
  N132     1.0000 0.10306  0.34558  0.09528  Biso   1.000  N 
  C177     1.0000 0.50000  0.84640  0.34640  Biso   1.000  C 
  O113     1.0000 0.50000  0.90471  0.32954  Biso   1.000  O 
  O114     1.0000 0.50000  0.82954  0.40471  Biso   1.000  O 
  C178     1.0000 0.50000  0.79500  0.29500  Biso   1.000  C 
  C179     1.0000 0.50000  0.73249  0.31563  Biso   1.000  C 
  N133     1.0000 0.49308  0.71397  0.38542  Biso   1.000  N 
  H45      1.0000 0.50000  0.63051  0.27872  Biso   1.000  H 
  C180     1.0000 0.50000  0.68442  0.26751  Biso   1.000  C 
  C181     1.0000 0.50000  0.70500  0.20500  Biso   1.000  C 
  C182     1.0000 0.50000  0.76751  0.18442  Biso   1.000  C 
  C183     1.0000 0.50000  0.81563  0.23249  Biso   1.000  C 
  H46      1.0000 0.50000  0.86954  0.22128  Biso   1.000  H 
  N134     1.0000 0.50689  0.78588  0.11462  Biso   1.000  N 
  O115     1.0000 0.50000  0.67046  0.09530  Biso   1.000  O 
  C184     1.0000 0.50000  0.65360  0.15360  Biso   1.000  C 
  O116     1.0000 0.50000  0.59529  0.17046  Biso   1.000  O 
  N135     1.0000 0.44388  0.68324  0.39570  Biso   1.000  N 
  N136     1.0000 0.39545  0.65328  0.40372  Biso   1.000  N 
  N137     1.0000 0.55615  0.81649  0.10446  Biso   1.000  N 
  N138     1.0000 0.60459  0.84648  0.09668  Biso   1.000  N 
  C185     1.0000 0.50000  0.34640  0.84640  Biso   1.000  C 
  O117     1.0000 0.50000  0.40471  0.82954  Biso   1.000  O 
  O118     1.0000 0.50000  0.32954  0.90471  Biso   1.000  O 
  C186     1.0000 0.50000  0.29500  0.79500  Biso   1.000  C 
  C187     1.0000 0.50000  0.23249  0.81563  Biso   1.000  C 
  N139     1.0000 0.49123  0.21396  0.88522  Biso   1.000  N 
  H47      1.0000 0.50000  0.13051  0.77872  Biso   1.000  H 
  C188     1.0000 0.50000  0.18442  0.76752  Biso   1.000  C 
  C189     1.0000 0.50000  0.20500  0.70501  Biso   1.000  C 
  C190     1.0000 0.50000  0.26751  0.68442  Biso   1.000  C 
  C191     1.0000 0.50000  0.31563  0.73249  Biso   1.000  C 
  H48      1.0000 0.50000  0.36954  0.72128  Biso   1.000  H 
  N140     1.0000 0.50739  0.28594  0.61468  Biso   1.000  N 
  O119     1.0000 0.50000  0.17046  0.59530  Biso   1.000  O 
  C192     1.0000 0.50000  0.15360  0.65361  Biso   1.000  C 
  O120     1.0000 0.50000  0.09529  0.67047  Biso   1.000  O 
  N141     1.0000 0.44119  0.18417  0.89431  Biso   1.000  N 
  N142     1.0000 0.39200  0.15514  0.90114  Biso   1.000  N 
  N143     1.0000 0.55705  0.31604  0.60487  Biso   1.000  N 
  N144     1.0000 0.60589  0.34548  0.59749  Biso   1.000  N 
