data_image0
_cell_length_a       20.7004
_cell_length_b       20.7004
_cell_length_c       20.7004
_cell_angle_alpha    90
_cell_angle_beta     90
_cell_angle_gamma    90

_symmetry_space_group_name_H-M    "P 1"
_symmetry_int_tables_number       1

loop_
  _symmetry_equiv_pos_as_xyz
  'x, y, z'

loop_
  _atom_site_label
  _atom_site_occupancy
  _atom_site_fract_x
  _atom_site_fract_y
  _atom_site_fract_z
  _atom_site_thermal_displace_type
  _atom_site_B_iso_or_equiv
  _atom_site_type_symbol
  Zr1      1.0000 0.11989  0.00000  0.00000  Biso   1.000  Zr
  Zr2      1.0000 0.11989  0.50000  0.50000  Biso   1.000  Zr
  Zr3      1.0000 0.61989  0.00000  0.50000  Biso   1.000  Zr
  Zr4      1.0000 0.61989  0.50000  0.00000  Biso   1.000  Zr
  Zr5      1.0000 0.88011  0.00000  0.00000  Biso   1.000  Zr
  Zr6      1.0000 0.88011  0.50000  0.50000  Biso   1.000  Zr
  Zr7      1.0000 0.38011  0.00000  0.50000  Biso   1.000  Zr
  Zr8      1.0000 0.38011  0.50000  0.00000  Biso   1.000  Zr
  Zr9      1.0000 0.00000  0.11989  0.00000  Biso   1.000  Zr
  Zr10     1.0000 0.00000  0.61989  0.50000  Biso   1.000  Zr
  Zr11     1.0000 0.50000  0.11989  0.50000  Biso   1.000  Zr
  Zr12     1.0000 0.50000  0.61989  0.00000  Biso   1.000  Zr
  Zr13     1.0000 0.00000  0.88011  0.00000  Biso   1.000  Zr
  Zr14     1.0000 0.00000  0.38011  0.50000  Biso   1.000  Zr
  Zr15     1.0000 0.50000  0.88011  0.50000  Biso   1.000  Zr
  Zr16     1.0000 0.50000  0.38011  0.00000  Biso   1.000  Zr
  Zr17     1.0000 0.00000  0.00000  0.11989  Biso   1.000  Zr
  Zr18     1.0000 0.00000  0.50000  0.61989  Biso   1.000  Zr
  Zr19     1.0000 0.50000  0.00000  0.61989  Biso   1.000  Zr
  Zr20     1.0000 0.50000  0.50000  0.11989  Biso   1.000  Zr
  Zr21     1.0000 0.00000  0.00000  0.88011  Biso   1.000  Zr
  Zr22     1.0000 0.00000  0.50000  0.38011  Biso   1.000  Zr
  Zr23     1.0000 0.50000  0.00000  0.38011  Biso   1.000  Zr
  Zr24     1.0000 0.50000  0.50000  0.88011  Biso   1.000  Zr
  O1       1.0000 0.05610  0.44390  0.44390  Biso   1.000  O 
  O2       1.0000 0.55610  0.94390  0.44390  Biso   1.000  O 
  O3       1.0000 0.55610  0.44390  0.94390  Biso   1.000  O 
  O4       1.0000 0.44390  0.05610  0.44390  Biso   1.000  O 
  O5       1.0000 0.44390  0.55610  0.94390  Biso   1.000  O 
  O6       1.0000 0.94390  0.94390  0.05610  Biso   1.000  O 
  O7       1.0000 0.94390  0.44390  0.55610  Biso   1.000  O 
  O8       1.0000 0.05610  0.05610  0.05610  Biso   1.000  O 
  O9       1.0000 0.55610  0.55610  0.05610  Biso   1.000  O 
  O10      1.0000 0.94390  0.05610  0.05610  Biso   1.000  O 
  O11      1.0000 0.94390  0.55610  0.55610  Biso   1.000  O 
  O12      1.0000 0.44390  0.05610  0.55610  Biso   1.000  O 
  O13      1.0000 0.44390  0.55610  0.05610  Biso   1.000  O 
  O14      1.0000 0.05610  0.94390  0.05610  Biso   1.000  O 
  O15      1.0000 0.05610  0.44390  0.55610  Biso   1.000  O 
  O16      1.0000 0.55610  0.94390  0.55610  Biso   1.000  O 
  O17      1.0000 0.55610  0.44390  0.05610  Biso   1.000  O 
  O18      1.0000 0.94390  0.94390  0.94390  Biso   1.000  O 
  O19      1.0000 0.94390  0.44390  0.44390  Biso   1.000  O 
  O20      1.0000 0.44390  0.94390  0.44390  Biso   1.000  O 
  O21      1.0000 0.44390  0.44390  0.94390  Biso   1.000  O 
  O22      1.0000 0.05610  0.05610  0.94390  Biso   1.000  O 
  O23      1.0000 0.05610  0.55610  0.44390  Biso   1.000  O 
  O24      1.0000 0.55610  0.05610  0.44390  Biso   1.000  O 
  C1       1.0000 0.15360  0.00000  0.84640  Biso   1.000  C 
  O25      1.0000 0.17046  0.00000  0.90471  Biso   1.000  O 
  O26      1.0000 0.09529  0.00000  0.82954  Biso   1.000  O 
  C2       1.0000 0.20500  0.00000  0.79500  Biso   1.000  C 
  C3       1.0000 0.18437  0.00000  0.73249  Biso   1.000  C 
  H1       1.0000 0.13046  0.00000  0.72128  Biso   1.000  H 
  C4       1.0000 0.20829  0.99979  0.61235  Biso   1.000  C 
  C5       1.0000 0.23249  0.00000  0.68442  Biso   1.000  C 
  C6       1.0000 0.29500  0.00000  0.70500  Biso   1.000  C 
  C7       1.0000 0.31558  0.00000  0.76751  Biso   1.000  C 
  C8       1.0000 0.26751  0.00000  0.81563  Biso   1.000  C 
  C9       1.0000 0.29493  0.99665  0.88795  Biso   1.000  C 
  H2       1.0000 0.36949  0.00000  0.77872  Biso   1.000  H 
  O27      1.0000 0.40470  0.00000  0.67046  Biso   1.000  O 
  C10      1.0000 0.34640  0.00000  0.65360  Biso   1.000  C 
  O28      1.0000 0.32954  0.00000  0.59529  Biso   1.000  O 
  F1       1.0000 0.14063  0.99793  0.60646  Biso   1.000  F 
  F2       1.0000 0.22970  0.94395  0.58151  Biso   1.000  F 
  F3       1.0000 0.22851  0.05475  0.58183  Biso   1.000  F 
  F4       1.0000 0.27544  0.05281  0.91980  Biso   1.000  F 
  F5       1.0000 0.36140  0.99716  0.88473  Biso   1.000  F 
  F6       1.0000 0.27503  0.94052  0.91692  Biso   1.000  F 
  C11      1.0000 0.15360  0.50000  0.34640  Biso   1.000  C 
  O29      1.0000 0.17046  0.50000  0.40471  Biso   1.000  O 
  O30      1.0000 0.09529  0.50000  0.32954  Biso   1.000  O 
  C12      1.0000 0.20500  0.50000  0.29500  Biso   1.000  C 
  C13      1.0000 0.18437  0.50000  0.23249  Biso   1.000  C 
  H3       1.0000 0.13046  0.50000  0.22128  Biso   1.000  H 
  C14      1.0000 0.20829  0.49970  0.11235  Biso   1.000  C 
  C15      1.0000 0.23249  0.50000  0.18442  Biso   1.000  C 
  C16      1.0000 0.29500  0.50000  0.20500  Biso   1.000  C 
  C17      1.0000 0.31558  0.50000  0.26751  Biso   1.000  C 
  C18      1.0000 0.26751  0.50000  0.31563  Biso   1.000  C 
  C19      1.0000 0.29426  0.49656  0.38856  Biso   1.000  C 
  H4       1.0000 0.36949  0.50000  0.27872  Biso   1.000  H 
  O31      1.0000 0.40470  0.50000  0.17046  Biso   1.000  O 
  C20      1.0000 0.34640  0.50000  0.15360  Biso   1.000  C 
  O32      1.0000 0.32954  0.50000  0.09529  Biso   1.000  O 
  F7       1.0000 0.14062  0.49780  0.10647  Biso   1.000  F 
  F8       1.0000 0.22975  0.44385  0.08159  Biso   1.000  F 
  F9       1.0000 0.22847  0.55465  0.08177  Biso   1.000  F 
  F10      1.0000 0.26991  0.54983  0.42224  Biso   1.000  F 
  F11      1.0000 0.35984  0.50323  0.38682  Biso   1.000  F 
  F12      1.0000 0.27915  0.43795  0.41641  Biso   1.000  F 
  C21      1.0000 0.65360  0.00000  0.34640  Biso   1.000  C 
  O33      1.0000 0.67046  0.00000  0.40471  Biso   1.000  O 
  O34      1.0000 0.59529  0.00000  0.32954  Biso   1.000  O 
  C22      1.0000 0.70500  0.00000  0.29500  Biso   1.000  C 
  C23      1.0000 0.68437  0.00000  0.23249  Biso   1.000  C 
  H5       1.0000 0.63046  0.00000  0.22128  Biso   1.000  H 
  C24      1.0000 0.70829  0.99936  0.11238  Biso   1.000  C 
  C25      1.0000 0.73248  0.00000  0.18442  Biso   1.000  C 
  C26      1.0000 0.79499  0.00000  0.20500  Biso   1.000  C 
  C27      1.0000 0.81558  0.00000  0.26751  Biso   1.000  C 
  C28      1.0000 0.76751  0.00000  0.31563  Biso   1.000  C 
  C29      1.0000 0.79423  0.99656  0.38858  Biso   1.000  C 
  H6       1.0000 0.86949  0.00000  0.27872  Biso   1.000  H 
  O35      1.0000 0.90470  0.00000  0.17046  Biso   1.000  O 
  C30      1.0000 0.84639  0.00000  0.15360  Biso   1.000  C 
  O36      1.0000 0.82953  0.00000  0.09529  Biso   1.000  O 
  F13      1.0000 0.64063  0.99729  0.10651  Biso   1.000  F 
  F14      1.0000 0.72992  0.94356  0.08185  Biso   1.000  F 
  F15      1.0000 0.72832  0.05440  0.08167  Biso   1.000  F 
  F16      1.0000 0.76971  0.04976  0.42227  Biso   1.000  F 
  F17      1.0000 0.85979  0.00338  0.38695  Biso   1.000  F 
  F18      1.0000 0.77920  0.93791  0.41639  Biso   1.000  F 
  C31      1.0000 0.65360  0.50000  0.84640  Biso   1.000  C 
  O37      1.0000 0.67046  0.50000  0.90471  Biso   1.000  O 
  O38      1.0000 0.59529  0.50000  0.82954  Biso   1.000  O 
  C32      1.0000 0.70500  0.50000  0.79500  Biso   1.000  C 
  C33      1.0000 0.68437  0.50000  0.73249  Biso   1.000  C 
  H7       1.0000 0.63046  0.50000  0.72128  Biso   1.000  H 
  C34      1.0000 0.70829  0.49938  0.61238  Biso   1.000  C 
  C35      1.0000 0.73248  0.50000  0.68442  Biso   1.000  C 
  C36      1.0000 0.79499  0.50000  0.70500  Biso   1.000  C 
  C37      1.0000 0.81558  0.50000  0.76751  Biso   1.000  C 
  C38      1.0000 0.76751  0.50000  0.81563  Biso   1.000  C 
  C39      1.0000 0.79387  0.49699  0.88882  Biso   1.000  C 
  H8       1.0000 0.86949  0.50000  0.77872  Biso   1.000  H 
  O39      1.0000 0.90470  0.50000  0.67046  Biso   1.000  O 
  C40      1.0000 0.84639  0.50000  0.65360  Biso   1.000  C 
  O40      1.0000 0.82953  0.50000  0.59529  Biso   1.000  O 
  F19      1.0000 0.64063  0.49733  0.60651  Biso   1.000  F 
  F20      1.0000 0.72990  0.44359  0.58183  Biso   1.000  F 
  F21      1.0000 0.72834  0.55443  0.58170  Biso   1.000  F 
  F22      1.0000 0.76818  0.54965  0.92251  Biso   1.000  F 
  F23      1.0000 0.85908  0.50516  0.88822  Biso   1.000  F 
  F24      1.0000 0.77955  0.43792  0.91649  Biso   1.000  F 
  C41      1.0000 0.84640  0.00000  0.84640  Biso   1.000  C 
  O41      1.0000 0.82954  0.00000  0.90471  Biso   1.000  O 
  O42      1.0000 0.90471  0.00000  0.82954  Biso   1.000  O 
  C42      1.0000 0.79500  0.00000  0.79500  Biso   1.000  C 
  C43      1.0000 0.81563  0.00000  0.73249  Biso   1.000  C 
  H9       1.0000 0.86954  0.00000  0.72128  Biso   1.000  H 
  C44      1.0000 0.79170  0.99970  0.61228  Biso   1.000  C 
  C45      1.0000 0.76752  0.00000  0.68442  Biso   1.000  C 
  C46      1.0000 0.70501  0.00000  0.70500  Biso   1.000  C 
  C47      1.0000 0.68442  0.00000  0.76751  Biso   1.000  C 
  C48      1.0000 0.73249  0.00000  0.81563  Biso   1.000  C 
  C49      1.0000 0.70486  0.99416  0.88789  Biso   1.000  C 
  H10      1.0000 0.63051  0.00000  0.77872  Biso   1.000  H 
  O43      1.0000 0.59530  0.00000  0.67046  Biso   1.000  O 
  C50      1.0000 0.65361  0.00000  0.65360  Biso   1.000  C 
  O44      1.0000 0.67047  0.00000  0.59529  Biso   1.000  O 
  F25      1.0000 0.85935  0.99896  0.60649  Biso   1.000  F 
  F26      1.0000 0.77111  0.05400  0.58093  Biso   1.000  F 
  F27      1.0000 0.77094  0.94332  0.58199  Biso   1.000  F 
  F28      1.0000 0.72510  0.04659  0.92181  Biso   1.000  F 
  F29      1.0000 0.72287  0.94137  0.91877  Biso   1.000  F 
  F30      1.0000 0.64098  0.99991  0.88349  Biso   1.000  F 
  C51      1.0000 0.84640  0.50000  0.34640  Biso   1.000  C 
  O45      1.0000 0.82954  0.50000  0.40471  Biso   1.000  O 
  O46      1.0000 0.90471  0.50000  0.32954  Biso   1.000  O 
  C52      1.0000 0.79500  0.50000  0.29500  Biso   1.000  C 
  C53      1.0000 0.81563  0.50000  0.23249  Biso   1.000  C 
  H11      1.0000 0.86954  0.50000  0.22128  Biso   1.000  H 
  C54      1.0000 0.79169  0.49993  0.11228  Biso   1.000  C 
  C55      1.0000 0.76752  0.50000  0.18442  Biso   1.000  C 
  C56      1.0000 0.70501  0.50000  0.20500  Biso   1.000  C 
  C57      1.0000 0.68442  0.50000  0.26751  Biso   1.000  C 
  C58      1.0000 0.73249  0.50000  0.31563  Biso   1.000  C 
  C59      1.0000 0.70476  0.49409  0.38795  Biso   1.000  C 
  H12      1.0000 0.63051  0.50000  0.27872  Biso   1.000  H 
  O47      1.0000 0.59530  0.50000  0.17046  Biso   1.000  O 
  C60      1.0000 0.65361  0.50000  0.15360  Biso   1.000  C 
  O48      1.0000 0.67047  0.50000  0.09529  Biso   1.000  O 
  F31      1.0000 0.85934  0.49927  0.10649  Biso   1.000  F 
  F32      1.0000 0.77100  0.55424  0.08110  Biso   1.000  F 
  F33      1.0000 0.77103  0.44354  0.08180  Biso   1.000  F 
  F34      1.0000 0.72543  0.54599  0.42239  Biso   1.000  F 
  F35      1.0000 0.72254  0.44116  0.41855  Biso   1.000  F 
  F36      1.0000 0.64079  0.50008  0.38350  Biso   1.000  F 
  C61      1.0000 0.34640  0.00000  0.34640  Biso   1.000  C 
  O49      1.0000 0.32954  0.00000  0.40471  Biso   1.000  O 
  O50      1.0000 0.40471  0.00000  0.32954  Biso   1.000  O 
  C62      1.0000 0.29500  0.00000  0.29500  Biso   1.000  C 
  C63      1.0000 0.31563  0.00000  0.23249  Biso   1.000  C 
  H13      1.0000 0.36954  0.00000  0.22128  Biso   1.000  H 
  C64      1.0000 0.29168  0.00023  0.11227  Biso   1.000  C 
  C65      1.0000 0.26751  0.00000  0.18442  Biso   1.000  C 
  C66      1.0000 0.20500  0.00000  0.20500  Biso   1.000  C 
  C67      1.0000 0.18442  0.00000  0.26751  Biso   1.000  C 
  C68      1.0000 0.23249  0.00000  0.31563  Biso   1.000  C 
  C69      1.0000 0.20557  0.99750  0.38786  Biso   1.000  C 
  H14      1.0000 0.13051  0.00000  0.27872  Biso   1.000  H 
  O51      1.0000 0.09530  0.00000  0.17046  Biso   1.000  O 
  C70      1.0000 0.15360  0.00000  0.15360  Biso   1.000  C 
  O52      1.0000 0.17046  0.00000  0.09529  Biso   1.000  O 
  F37      1.0000 0.35932  0.99969  0.10649  Biso   1.000  F 
  F38      1.0000 0.27089  0.05457  0.08127  Biso   1.000  F 
  F39      1.0000 0.27111  0.94389  0.08157  Biso   1.000  F 
  F40      1.0000 0.22554  0.05470  0.41474  Biso   1.000  F 
  F41      1.0000 0.22768  0.94610  0.42073  Biso   1.000  F 
  F42      1.0000 0.14094  0.00168  0.38768  Biso   1.000  F 
  C71      1.0000 0.34640  0.50000  0.84640  Biso   1.000  C 
  O53      1.0000 0.32954  0.50000  0.90471  Biso   1.000  O 
  O54      1.0000 0.40471  0.50000  0.82954  Biso   1.000  O 
  C72      1.0000 0.29500  0.50000  0.79500  Biso   1.000  C 
  C73      1.0000 0.31563  0.50000  0.73249  Biso   1.000  C 
  H15      1.0000 0.36954  0.50000  0.72128  Biso   1.000  H 
  C74      1.0000 0.29170  0.49969  0.61228  Biso   1.000  C 
  C75      1.0000 0.26751  0.50000  0.68442  Biso   1.000  C 
  C76      1.0000 0.20500  0.50000  0.70500  Biso   1.000  C 
  C77      1.0000 0.18442  0.50000  0.76751  Biso   1.000  C 
  C78      1.0000 0.23249  0.50000  0.81563  Biso   1.000  C 
  C79      1.0000 0.20557  0.49746  0.88786  Biso   1.000  C 
  H16      1.0000 0.13051  0.50000  0.77872  Biso   1.000  H 
  O55      1.0000 0.09530  0.50000  0.67046  Biso   1.000  O 
  C80      1.0000 0.15360  0.50000  0.65360  Biso   1.000  C 
  O56      1.0000 0.17046  0.50000  0.59529  Biso   1.000  O 
  F43      1.0000 0.35935  0.49896  0.60649  Biso   1.000  F 
  F44      1.0000 0.27112  0.55400  0.58092  Biso   1.000  F 
  F45      1.0000 0.27094  0.44332  0.58199  Biso   1.000  F 
  F46      1.0000 0.22553  0.55464  0.91479  Biso   1.000  F 
  F47      1.0000 0.22766  0.44604  0.92070  Biso   1.000  F 
  F48      1.0000 0.14093  0.50166  0.88767  Biso   1.000  F 
  C81      1.0000 0.84640  0.15360  0.00000  Biso   1.000  C 
  O57      1.0000 0.90471  0.17046  0.00000  Biso   1.000  O 
  O58      1.0000 0.82954  0.09529  0.00000  Biso   1.000  O 
  C82      1.0000 0.79500  0.20500  0.00000  Biso   1.000  C 
  C83      1.0000 0.73249  0.18437  0.00000  Biso   1.000  C 
  H17      1.0000 0.72128  0.13046  0.00000  Biso   1.000  H 
  C84      1.0000 0.61237  0.20829  0.99954  Biso   1.000  C 
  C85      1.0000 0.68442  0.23249  0.00000  Biso   1.000  C 
  C86      1.0000 0.70500  0.29500  0.00000  Biso   1.000  C 
  C87      1.0000 0.76751  0.31558  0.00000  Biso   1.000  C 
  C88      1.0000 0.81563  0.26751  0.00000  Biso   1.000  C 
  C89      1.0000 0.88797  0.29491  0.99654  Biso   1.000  C 
  H18      1.0000 0.77872  0.36949  0.00000  Biso   1.000  H 
  O59      1.0000 0.67046  0.40470  0.00000  Biso   1.000  O 
  C90      1.0000 0.65360  0.34640  0.00000  Biso   1.000  C 
  O60      1.0000 0.59529  0.32954  0.00000  Biso   1.000  O 
  F49      1.0000 0.60651  0.14063  0.99756  Biso   1.000  F 
  F50      1.0000 0.58170  0.22983  0.94376  Biso   1.000  F 
  F51      1.0000 0.58181  0.22840  0.05460  Biso   1.000  F 
  F52      1.0000 0.92002  0.27499  0.05246  Biso   1.000  F 
  F53      1.0000 0.88480  0.36136  0.99753  Biso   1.000  F 
  F54      1.0000 0.91681  0.27538  0.94020  Biso   1.000  F 
  C91      1.0000 0.84640  0.65360  0.50000  Biso   1.000  C 
  O61      1.0000 0.90471  0.67046  0.50000  Biso   1.000  O 
  O62      1.0000 0.82954  0.59529  0.50000  Biso   1.000  O 
  C92      1.0000 0.79500  0.70500  0.50000  Biso   1.000  C 
  C93      1.0000 0.73249  0.68437  0.50000  Biso   1.000  C 
  H19      1.0000 0.72128  0.63046  0.50000  Biso   1.000  H 
  C94      1.0000 0.61238  0.70829  0.49938  Biso   1.000  C 
  C95      1.0000 0.68442  0.73248  0.50000  Biso   1.000  C 
  C96      1.0000 0.70500  0.79499  0.50000  Biso   1.000  C 
  C97      1.0000 0.76751  0.81558  0.50000  Biso   1.000  C 
  C98      1.0000 0.81563  0.76751  0.50000  Biso   1.000  C 
  C99      1.0000 0.88816  0.79472  0.49641  Biso   1.000  C 
  H20      1.0000 0.77872  0.86949  0.50000  Biso   1.000  H 
  O63      1.0000 0.67046  0.90470  0.50000  Biso   1.000  O 
  C100     1.0000 0.65360  0.84639  0.50000  Biso   1.000  C 
  O64      1.0000 0.59529  0.82953  0.50000  Biso   1.000  O 
  F55      1.0000 0.60651  0.64063  0.49732  Biso   1.000  F 
  F56      1.0000 0.58182  0.72990  0.44359  Biso   1.000  F 
  F57      1.0000 0.58169  0.72833  0.55443  Biso   1.000  F 
  F58      1.0000 0.92097  0.77301  0.55127  Biso   1.000  F 
  F59      1.0000 0.88529  0.86087  0.49972  Biso   1.000  F 
  F60      1.0000 0.91653  0.77711  0.43906  Biso   1.000  F 
  C101     1.0000 0.34640  0.15360  0.50000  Biso   1.000  C 
  O65      1.0000 0.40471  0.17046  0.50000  Biso   1.000  O 
  O66      1.0000 0.32954  0.09529  0.50000  Biso   1.000  O 
  C102     1.0000 0.29500  0.20500  0.50000  Biso   1.000  C 
  C103     1.0000 0.23249  0.18437  0.50000  Biso   1.000  C 
  H21      1.0000 0.22128  0.13046  0.50000  Biso   1.000  H 
  C104     1.0000 0.11236  0.20829  0.49930  Biso   1.000  C 
  C105     1.0000 0.18442  0.23249  0.50000  Biso   1.000  C 
  C106     1.0000 0.20500  0.29500  0.50000  Biso   1.000  C 
  C107     1.0000 0.26751  0.31558  0.50000  Biso   1.000  C 
  C108     1.0000 0.31563  0.26751  0.50000  Biso   1.000  C 
  C109     1.0000 0.38857  0.29425  0.49659  Biso   1.000  C 
  H22      1.0000 0.27872  0.36949  0.50000  Biso   1.000  H 
  O67      1.0000 0.17046  0.40470  0.50000  Biso   1.000  O 
  C110     1.0000 0.15360  0.34640  0.50000  Biso   1.000  C 
  O68      1.0000 0.09529  0.32954  0.50000  Biso   1.000  O 
  F61      1.0000 0.10648  0.14063  0.49722  Biso   1.000  F 
  F62      1.0000 0.08189  0.22994  0.44346  Biso   1.000  F 
  F63      1.0000 0.08153  0.22831  0.55427  Biso   1.000  F 
  F64      1.0000 0.42224  0.26977  0.54982  Biso   1.000  F 
  F65      1.0000 0.38691  0.35981  0.50337  Biso   1.000  F 
  F66      1.0000 0.41641  0.27920  0.43796  Biso   1.000  F 
  C111     1.0000 0.34640  0.65360  0.00000  Biso   1.000  C 
  O69      1.0000 0.40471  0.67046  0.00000  Biso   1.000  O 
  O70      1.0000 0.32954  0.59529  0.00000  Biso   1.000  O 
  C112     1.0000 0.29500  0.70500  0.00000  Biso   1.000  C 
  C113     1.0000 0.23249  0.68437  0.00000  Biso   1.000  C 
  H23      1.0000 0.22128  0.63046  0.00000  Biso   1.000  H 
  C114     1.0000 0.11235  0.70830  0.99973  Biso   1.000  C 
  C115     1.0000 0.18442  0.73248  0.00000  Biso   1.000  C 
  C116     1.0000 0.20500  0.79499  0.00000  Biso   1.000  C 
  C117     1.0000 0.26751  0.81558  0.00000  Biso   1.000  C 
  C118     1.0000 0.31563  0.76751  0.00000  Biso   1.000  C 
  C119     1.0000 0.38814  0.79471  0.99638  Biso   1.000  C 
  H24      1.0000 0.27872  0.86949  0.00000  Biso   1.000  H 
  O71      1.0000 0.17046  0.90470  0.00000  Biso   1.000  O 
  C120     1.0000 0.15360  0.84639  0.00000  Biso   1.000  C 
  O72      1.0000 0.09529  0.82953  0.00000  Biso   1.000  O 
  F67      1.0000 0.10647  0.64063  0.99785  Biso   1.000  F 
  F68      1.0000 0.08156  0.72973  0.94388  Biso   1.000  F 
  F69      1.0000 0.08178  0.72848  0.05468  Biso   1.000  F 
  F70      1.0000 0.42096  0.77313  0.05125  Biso   1.000  F 
  F71      1.0000 0.38527  0.86088  0.99958  Biso   1.000  F 
  F72      1.0000 0.41652  0.77702  0.93901  Biso   1.000  F 
  C121     1.0000 0.84640  0.84640  0.00000  Biso   1.000  C 
  O73      1.0000 0.90471  0.82954  0.00000  Biso   1.000  O 
  O74      1.0000 0.82954  0.90471  0.00000  Biso   1.000  O 
  C122     1.0000 0.79500  0.79500  0.00000  Biso   1.000  C 
  C123     1.0000 0.73249  0.81563  0.00000  Biso   1.000  C 
  H25      1.0000 0.72128  0.86954  0.00000  Biso   1.000  H 
  C124     1.0000 0.61227  0.79168  0.00064  Biso   1.000  C 
  C125     1.0000 0.68442  0.76752  0.00000  Biso   1.000  C 
  C126     1.0000 0.70500  0.70501  0.00000  Biso   1.000  C 
  C127     1.0000 0.76751  0.68442  0.00000  Biso   1.000  C 
  C128     1.0000 0.81563  0.73249  0.00000  Biso   1.000  C 
  C129     1.0000 0.88789  0.70557  0.99764  Biso   1.000  C 
  H26      1.0000 0.77872  0.63051  0.00000  Biso   1.000  H 
  O75      1.0000 0.67046  0.59530  0.00000  Biso   1.000  O 
  C130     1.0000 0.65360  0.65361  0.00000  Biso   1.000  C 
  O76      1.0000 0.59529  0.67047  0.00000  Biso   1.000  O 
  F73      1.0000 0.60652  0.85932  0.00027  Biso   1.000  F 
  F74      1.0000 0.58158  0.77071  0.05500  Biso   1.000  F 
  F75      1.0000 0.58127  0.77130  0.94431  Biso   1.000  F 
  F76      1.0000 0.91466  0.72591  0.05483  Biso   1.000  F 
  F77      1.0000 0.92072  0.72773  0.94616  Biso   1.000  F 
  F78      1.0000 0.88790  0.64081  0.00209  Biso   1.000  F 
  C131     1.0000 0.84640  0.34640  0.50000  Biso   1.000  C 
  O77      1.0000 0.90471  0.32954  0.50000  Biso   1.000  O 
  O78      1.0000 0.82954  0.40471  0.50000  Biso   1.000  O 
  C132     1.0000 0.79500  0.29500  0.50000  Biso   1.000  C 
  C133     1.0000 0.73249  0.31563  0.50000  Biso   1.000  C 
  H27      1.0000 0.72128  0.36954  0.50000  Biso   1.000  H 
  C134     1.0000 0.61228  0.29170  0.49976  Biso   1.000  C 
  C135     1.0000 0.68442  0.26751  0.50000  Biso   1.000  C 
  C136     1.0000 0.70500  0.20500  0.50000  Biso   1.000  C 
  C137     1.0000 0.76751  0.18442  0.50000  Biso   1.000  C 
  C138     1.0000 0.81563  0.23249  0.50000  Biso   1.000  C 
  C139     1.0000 0.88773  0.20555  0.49648  Biso   1.000  C 
  H28      1.0000 0.77872  0.13051  0.50000  Biso   1.000  H 
  O79      1.0000 0.67046  0.09530  0.50000  Biso   1.000  O 
  C140     1.0000 0.65360  0.15360  0.50000  Biso   1.000  C 
  O80      1.0000 0.59529  0.17046  0.50000  Biso   1.000  O 
  F79      1.0000 0.60649  0.35935  0.49908  Biso   1.000  F 
  F80      1.0000 0.58098  0.27108  0.55408  Biso   1.000  F 
  F81      1.0000 0.58194  0.27098  0.44339  Biso   1.000  F 
  F82      1.0000 0.91587  0.22399  0.55325  Biso   1.000  F 
  F83      1.0000 0.92061  0.22679  0.44508  Biso   1.000  F 
  F84      1.0000 0.88620  0.14154  0.50002  Biso   1.000  F 
  C141     1.0000 0.34640  0.84640  0.50000  Biso   1.000  C 
  O81      1.0000 0.40471  0.82954  0.50000  Biso   1.000  O 
  O82      1.0000 0.32954  0.90471  0.50000  Biso   1.000  O 
  C142     1.0000 0.29500  0.79500  0.50000  Biso   1.000  C 
  C143     1.0000 0.23249  0.81563  0.50000  Biso   1.000  C 
  H29      1.0000 0.22128  0.86954  0.50000  Biso   1.000  H 
  C144     1.0000 0.11228  0.79170  0.49968  Biso   1.000  C 
  C145     1.0000 0.18442  0.76752  0.50000  Biso   1.000  C 
  C146     1.0000 0.20500  0.70501  0.50000  Biso   1.000  C 
  C147     1.0000 0.26751  0.68442  0.50000  Biso   1.000  C 
  C148     1.0000 0.31563  0.73249  0.50000  Biso   1.000  C 
  C149     1.0000 0.38789  0.70484  0.49409  Biso   1.000  C 
  H30      1.0000 0.27872  0.63051  0.50000  Biso   1.000  H 
  O83      1.0000 0.17046  0.59530  0.50000  Biso   1.000  O 
  C150     1.0000 0.15360  0.65361  0.50000  Biso   1.000  C 
  O84      1.0000 0.09529  0.67047  0.50000  Biso   1.000  O 
  F85      1.0000 0.10647  0.85935  0.49891  Biso   1.000  F 
  F86      1.0000 0.08089  0.77114  0.55398  Biso   1.000  F 
  F87      1.0000 0.08200  0.77090  0.44331  Biso   1.000  F 
  F88      1.0000 0.42191  0.72509  0.54645  Biso   1.000  F 
  F89      1.0000 0.41872  0.72285  0.44127  Biso   1.000  F 
  F90      1.0000 0.38348  0.64094  0.49986  Biso   1.000  F 
  C151     1.0000 0.34640  0.34640  0.00000  Biso   1.000  C 
  O85      1.0000 0.40471  0.32954  0.00000  Biso   1.000  O 
  O86      1.0000 0.32954  0.40471  0.00000  Biso   1.000  O 
  C152     1.0000 0.29500  0.29500  0.00000  Biso   1.000  C 
  C153     1.0000 0.23249  0.31563  0.00000  Biso   1.000  C 
  H31      1.0000 0.22128  0.36954  0.00000  Biso   1.000  H 
  C154     1.0000 0.11227  0.29168  0.00020  Biso   1.000  C 
  C155     1.0000 0.18442  0.26751  0.00000  Biso   1.000  C 
  C156     1.0000 0.20500  0.20500  0.00000  Biso   1.000  C 
  C157     1.0000 0.26751  0.18442  0.00000  Biso   1.000  C 
  C158     1.0000 0.31563  0.23249  0.00000  Biso   1.000  C 
  C159     1.0000 0.38791  0.20482  0.99411  Biso   1.000  C 
  H32      1.0000 0.27872  0.13051  0.00000  Biso   1.000  H 
  O87      1.0000 0.17046  0.09530  0.00000  Biso   1.000  O 
  C160     1.0000 0.15360  0.15360  0.00000  Biso   1.000  C 
  O88      1.0000 0.09529  0.17046  0.00000  Biso   1.000  O 
  F91      1.0000 0.10649  0.35933  0.99961  Biso   1.000  F 
  F92      1.0000 0.08125  0.27091  0.05453  Biso   1.000  F 
  F93      1.0000 0.08160  0.27108  0.94385  Biso   1.000  F 
  F94      1.0000 0.42204  0.22522  0.04633  Biso   1.000  F 
  F95      1.0000 0.41868  0.22277  0.94127  Biso   1.000  F 
  F96      1.0000 0.38350  0.14091  0.99992  Biso   1.000  F 
  C161     1.0000 0.00000  0.84640  0.15360  Biso   1.000  C 
  O89      1.0000 0.00000  0.90471  0.17046  Biso   1.000  O 
  O90      1.0000 0.00000  0.82954  0.09529  Biso   1.000  O 
  C162     1.0000 0.00000  0.79500  0.20500  Biso   1.000  C 
  C163     1.0000 0.00000  0.73249  0.18437  Biso   1.000  C 
  H33      1.0000 0.00000  0.72128  0.13046  Biso   1.000  H 
  C164     1.0000 0.99971  0.61235  0.20829  Biso   1.000  C 
  C165     1.0000 0.00000  0.68442  0.23249  Biso   1.000  C 
  C166     1.0000 0.00000  0.70500  0.29500  Biso   1.000  C 
  C167     1.0000 0.00000  0.76751  0.31558  Biso   1.000  C 
  C168     1.0000 0.00000  0.81563  0.26751  Biso   1.000  C 
  C169     1.0000 0.99639  0.88838  0.29446  Biso   1.000  C 
  H34      1.0000 0.00000  0.77872  0.36949  Biso   1.000  H 
  O91      1.0000 0.00000  0.67046  0.40470  Biso   1.000  O 
  C170     1.0000 0.00000  0.65360  0.34640  Biso   1.000  C 
  O92      1.0000 0.00000  0.59529  0.32954  Biso   1.000  O 
  F97      1.0000 0.99783  0.60647  0.14062  Biso   1.000  F 
  F98      1.0000 0.94387  0.58158  0.22974  Biso   1.000  F 
  F99      1.0000 0.05467  0.58178  0.22847  Biso   1.000  F 
  F100     1.0000 0.05017  0.92186  0.27104  Biso   1.000  F 
  F101     1.0000 0.00188  0.88612  0.36028  Biso   1.000  F 
  F102     1.0000 0.93817  0.91639  0.27853  Biso   1.000  F 
  C171     1.0000 0.00000  0.34640  0.65360  Biso   1.000  C 
  O93      1.0000 0.00000  0.40471  0.67046  Biso   1.000  O 
  O94      1.0000 0.00000  0.32954  0.59529  Biso   1.000  O 
  C172     1.0000 0.00000  0.29500  0.70500  Biso   1.000  C 
  C173     1.0000 0.00000  0.23249  0.68437  Biso   1.000  C 
  H35      1.0000 0.00000  0.22128  0.63046  Biso   1.000  H 
  C174     1.0000 0.99985  0.11236  0.70829  Biso   1.000  C 
  C175     1.0000 0.00000  0.18442  0.73248  Biso   1.000  C 
  C176     1.0000 0.00000  0.20500  0.79499  Biso   1.000  C 
  C177     1.0000 0.00000  0.26751  0.81558  Biso   1.000  C 
  C178     1.0000 0.00000  0.31563  0.76751  Biso   1.000  C 
  C179     1.0000 0.99659  0.38862  0.79418  Biso   1.000  C 
  H36      1.0000 0.00000  0.27872  0.86949  Biso   1.000  H 
  O95      1.0000 0.00000  0.17046  0.90470  Biso   1.000  O 
  C180     1.0000 0.00000  0.15360  0.84639  Biso   1.000  C 
  O96      1.0000 0.00000  0.09529  0.82953  Biso   1.000  O 
  F103     1.0000 0.99800  0.10650  0.64062  Biso   1.000  F 
  F104     1.0000 0.94404  0.08149  0.72970  Biso   1.000  F 
  F105     1.0000 0.05488  0.08196  0.72852  Biso   1.000  F 
  F106     1.0000 0.04968  0.42233  0.76947  Biso   1.000  F 
  F107     1.0000 0.00363  0.38714  0.85968  Biso   1.000  F 
  F108     1.0000 0.93788  0.41641  0.77927  Biso   1.000  F 
  C181     1.0000 0.50000  0.84640  0.65360  Biso   1.000  C 
  O97      1.0000 0.50000  0.90471  0.67046  Biso   1.000  O 
  O98      1.0000 0.50000  0.82954  0.59529  Biso   1.000  O 
  C182     1.0000 0.50000  0.79500  0.70500  Biso   1.000  C 
  C183     1.0000 0.50000  0.73249  0.68437  Biso   1.000  C 
  H37      1.0000 0.50000  0.72128  0.63046  Biso   1.000  H 
  C184     1.0000 0.49903  0.61237  0.70829  Biso   1.000  C 
  C185     1.0000 0.50000  0.68442  0.73248  Biso   1.000  C 
  C186     1.0000 0.50000  0.70500  0.79499  Biso   1.000  C 
  C187     1.0000 0.50000  0.76751  0.81558  Biso   1.000  C 
  C188     1.0000 0.50000  0.81563  0.76751  Biso   1.000  C 
  C189     1.0000 0.49640  0.88816  0.79471  Biso   1.000  C 
  H38      1.0000 0.50000  0.77872  0.86949  Biso   1.000  H 
  O99      1.0000 0.50000  0.67046  0.90470  Biso   1.000  O 
  C190     1.0000 0.50000  0.65360  0.84639  Biso   1.000  C 
  O100     1.0000 0.50000  0.59529  0.82953  Biso   1.000  O 
  F109     1.0000 0.49682  0.60648  0.64063  Biso   1.000  F 
  F110     1.0000 0.44322  0.58208  0.73005  Biso   1.000  F 
  F111     1.0000 0.55404  0.58138  0.72817  Biso   1.000  F 
  F112     1.0000 0.55126  0.92099  0.77303  Biso   1.000  F 
  F113     1.0000 0.49970  0.88530  0.86086  Biso   1.000  F 
  F114     1.0000 0.43903  0.91651  0.77710  Biso   1.000  F 
  C191     1.0000 0.50000  0.34640  0.15360  Biso   1.000  C 
  O101     1.0000 0.50000  0.40471  0.17046  Biso   1.000  O 
  O102     1.0000 0.50000  0.32954  0.09529  Biso   1.000  O 
  C192     1.0000 0.50000  0.29500  0.20500  Biso   1.000  C 
  C193     1.0000 0.50000  0.23249  0.18437  Biso   1.000  C 
  H39      1.0000 0.50000  0.22128  0.13046  Biso   1.000  H 
  C194     1.0000 0.49940  0.11236  0.20829  Biso   1.000  C 
  C195     1.0000 0.50000  0.18442  0.23249  Biso   1.000  C 
  C196     1.0000 0.50000  0.20500  0.29500  Biso   1.000  C 
  C197     1.0000 0.50000  0.26751  0.31558  Biso   1.000  C 
  C198     1.0000 0.50000  0.31563  0.26751  Biso   1.000  C 
  C199     1.0000 0.49663  0.38795  0.29493  Biso   1.000  C 
  H40      1.0000 0.50000  0.27872  0.36949  Biso   1.000  H 
  O103     1.0000 0.50000  0.17046  0.40470  Biso   1.000  O 
  C200     1.0000 0.50000  0.15360  0.34640  Biso   1.000  C 
  O104     1.0000 0.50000  0.09529  0.32954  Biso   1.000  O 
  F115     1.0000 0.49737  0.10647  0.14063  Biso   1.000  F 
  F116     1.0000 0.44358  0.08179  0.22989  Biso   1.000  F 
  F117     1.0000 0.55438  0.08160  0.22835  Biso   1.000  F 
  F118     1.0000 0.55279  0.41982  0.27548  Biso   1.000  F 
  F119     1.0000 0.49713  0.38471  0.36141  Biso   1.000  F 
  F120     1.0000 0.44051  0.41693  0.27503  Biso   1.000  F 
  C201     1.0000 0.00000  0.84640  0.84640  Biso   1.000  C 
  O105     1.0000 0.00000  0.90471  0.82954  Biso   1.000  O 
  O106     1.0000 0.00000  0.82954  0.90471  Biso   1.000  O 
  C202     1.0000 0.00000  0.79500  0.79500  Biso   1.000  C 
  C203     1.0000 0.00000  0.73249  0.81563  Biso   1.000  C 
  H41      1.0000 0.00000  0.72128  0.86954  Biso   1.000  H 
  C204     1.0000 0.99961  0.61228  0.79170  Biso   1.000  C 
  C205     1.0000 0.00000  0.68442  0.76752  Biso   1.000  C 
  C206     1.0000 0.00000  0.70500  0.70501  Biso   1.000  C 
  C207     1.0000 0.00000  0.76751  0.68442  Biso   1.000  C 
  C208     1.0000 0.00000  0.81563  0.73249  Biso   1.000  C 
  C209     1.0000 0.99482  0.88769  0.70534  Biso   1.000  C 
  H42      1.0000 0.00000  0.77872  0.63051  Biso   1.000  H 
  O107     1.0000 0.00000  0.67046  0.59530  Biso   1.000  O 
  C210     1.0000 0.00000  0.65360  0.65361  Biso   1.000  C 
  O108     1.0000 0.00000  0.59529  0.67047  Biso   1.000  O 
  F121     1.0000 0.99881  0.60648  0.85936  Biso   1.000  F 
  F122     1.0000 0.05390  0.58086  0.77115  Biso   1.000  F 
  F123     1.0000 0.94321  0.58206  0.77089  Biso   1.000  F 
  F124     1.0000 0.04972  0.91877  0.72372  Biso   1.000  F 
  F125     1.0000 0.94273  0.91968  0.72494  Biso   1.000  F 
  F126     1.0000 0.99897  0.88424  0.64172  Biso   1.000  F 
  C211     1.0000 0.00000  0.34640  0.34640  Biso   1.000  C 
  O109     1.0000 0.00000  0.40471  0.32954  Biso   1.000  O 
  O110     1.0000 0.00000  0.32954  0.40471  Biso   1.000  O 
  C212     1.0000 0.00000  0.29500  0.29500  Biso   1.000  C 
  C213     1.0000 0.00000  0.23249  0.31563  Biso   1.000  C 
  H43      1.0000 0.00000  0.22128  0.36954  Biso   1.000  H 
  C214     1.0000 0.00014  0.11228  0.29169  Biso   1.000  C 
  C215     1.0000 0.00000  0.18442  0.26751  Biso   1.000  C 
  C216     1.0000 0.00000  0.20500  0.20500  Biso   1.000  C 
  C217     1.0000 0.00000  0.26751  0.18442  Biso   1.000  C 
  C218     1.0000 0.00000  0.31563  0.23249  Biso   1.000  C 
  C219     1.0000 0.99756  0.38786  0.20558  Biso   1.000  C 
  H44      1.0000 0.00000  0.27872  0.13051  Biso   1.000  H 
  O111     1.0000 0.00000  0.17046  0.09530  Biso   1.000  O 
  C220     1.0000 0.00000  0.15360  0.15360  Biso   1.000  C 
  O112     1.0000 0.00000  0.09529  0.17046  Biso   1.000  O 
  F127     1.0000 0.99955  0.10650  0.35933  Biso   1.000  F 
  F128     1.0000 0.05448  0.08124  0.27093  Biso   1.000  F 
  F129     1.0000 0.94378  0.08164  0.27108  Biso   1.000  F 
  F130     1.0000 0.05477  0.41469  0.22559  Biso   1.000  F 
  F131     1.0000 0.94617  0.42076  0.22768  Biso   1.000  F 
  F132     1.0000 0.00175  0.38770  0.14095  Biso   1.000  F 
  C221     1.0000 0.50000  0.84640  0.34640  Biso   1.000  C 
  O113     1.0000 0.50000  0.90471  0.32954  Biso   1.000  O 
  O114     1.0000 0.50000  0.82954  0.40471  Biso   1.000  O 
  C222     1.0000 0.50000  0.79500  0.29500  Biso   1.000  C 
  C223     1.0000 0.50000  0.73249  0.31563  Biso   1.000  C 
  H45      1.0000 0.50000  0.72128  0.36954  Biso   1.000  H 
  C224     1.0000 0.50031  0.61227  0.29168  Biso   1.000  C 
  C225     1.0000 0.50000  0.68442  0.26751  Biso   1.000  C 
  C226     1.0000 0.50000  0.70500  0.20500  Biso   1.000  C 
  C227     1.0000 0.50000  0.76751  0.18442  Biso   1.000  C 
  C228     1.0000 0.50000  0.81563  0.23249  Biso   1.000  C 
  C229     1.0000 0.49654  0.88773  0.20556  Biso   1.000  C 
  H46      1.0000 0.50000  0.77872  0.13051  Biso   1.000  H 
  O115     1.0000 0.50000  0.67046  0.09530  Biso   1.000  O 
  C230     1.0000 0.50000  0.65360  0.15360  Biso   1.000  C 
  O116     1.0000 0.50000  0.59529  0.17046  Biso   1.000  O 
  F133     1.0000 0.49983  0.60650  0.35933  Biso   1.000  F 
  F134     1.0000 0.55466  0.58134  0.27085  Biso   1.000  F 
  F135     1.0000 0.44398  0.58152  0.27116  Biso   1.000  F 
  F136     1.0000 0.55331  0.91583  0.22400  Biso   1.000  F 
  F137     1.0000 0.44515  0.92066  0.22677  Biso   1.000  F 
  F138     1.0000 0.50007  0.88618  0.14156  Biso   1.000  F 
  C231     1.0000 0.50000  0.34640  0.84640  Biso   1.000  C 
  O117     1.0000 0.50000  0.40471  0.82954  Biso   1.000  O 
  O118     1.0000 0.50000  0.32954  0.90471  Biso   1.000  O 
  C232     1.0000 0.50000  0.29500  0.79500  Biso   1.000  C 
  C233     1.0000 0.50000  0.23249  0.81563  Biso   1.000  C 
  H47      1.0000 0.50000  0.22128  0.86954  Biso   1.000  H 
  C234     1.0000 0.49987  0.11228  0.79169  Biso   1.000  C 
  C235     1.0000 0.50000  0.18442  0.76752  Biso   1.000  C 
  C236     1.0000 0.50000  0.20500  0.70501  Biso   1.000  C 
  C237     1.0000 0.50000  0.26751  0.68442  Biso   1.000  C 
  C238     1.0000 0.50000  0.31563  0.73249  Biso   1.000  C 
  C239     1.0000 0.49526  0.38769  0.70542  Biso   1.000  C 
  H48      1.0000 0.50000  0.27872  0.63051  Biso   1.000  H 
  O119     1.0000 0.50000  0.17046  0.59530  Biso   1.000  O 
  C240     1.0000 0.50000  0.15360  0.65361  Biso   1.000  C 
  O120     1.0000 0.50000  0.09529  0.67047  Biso   1.000  O 
  F139     1.0000 0.49923  0.10648  0.85935  Biso   1.000  F 
  F140     1.0000 0.55420  0.08103  0.77105  Biso   1.000  F 
  F141     1.0000 0.44352  0.08186  0.77100  Biso   1.000  F 
  F142     1.0000 0.55069  0.41801  0.72364  Biso   1.000  F 
  F143     1.0000 0.44338  0.42009  0.72524  Biso   1.000  F 
  F144     1.0000 0.49932  0.38454  0.64178  Biso   1.000  F 
